%nproc=64
%mem=256GB
%chk=0000009.chk
#p opt freq b3lyp/6-31g* em=gd3bj

C1CC2CC3CCC3C2C1

0 1
C -2.2657 1.7422 1.2733
C -0.9871 2.4875 0.8912
C -0.3958 1.7317 -0.3012
C 0.8739 0.9447 0.0429
C 0.8563 -0.2497 -0.9008
C 1.0849 0.0329 -2.4035
C -0.2872 -0.5824 -2.7047
C -0.6317 -0.5368 -1.1995
C -1.4229 0.6569 -0.6744
C -2.1274 0.3639 0.6460
H -2.4059 1.6919 2.3571
H -3.1346 2.2591 0.8482
H -0.2889 2.5292 1.7344
H -1.2250 3.5222 0.6205
H -0.2034 2.4023 -1.1465
H 1.7742 1.5551 -0.0796
H 0.8529 0.5910 1.0807
H 1.4215 -1.1160 -0.5386
H 1.9312 -0.4998 -2.8477
H 1.1636 1.0917 -2.6722
H -0.2258 -1.6014 -3.1037
H -0.9310 0.0100 -3.3610
H -1.0004 -1.5005 -0.8289
H -2.1454 1.0318 -1.4089
H -3.0963 -0.1224 0.4964
H -1.5261 -0.2885 1.2908


--link1--
%nproc=64
%mem=256GB
%oldchk=0000009.chk
%chk=0000009_1.chk
#p m062x/def2tzvp geom=check em=gd3

C1CC2CC3CCC3C2C1

0 1


--link1--
%nproc=64
%mem=256GB
%oldchk=0000009.chk
%chk=0000009_2.chk
#p m062x/def2tzvp scrf=solvent=water geom=check em=gd3

C1CC2CC3CCC3C2C1

0 1


