%nproc=64
%mem=256GB
%chk=0000007.chk
#p opt freq b3lyp/6-31g* em=gd3bj

C1CC2C3CCC(C3)C2C1

0 1
C -1.3899 0.5728 -1.7964
C -0.3139 -0.5066 -1.7302
C 0.7544 0.1079 -0.8333
C 1.4922 -0.7585 0.2078
C 0.5377 -1.6056 1.0664
C -0.1778 -0.5603 1.9324
C 0.4478 0.7672 1.4717
C 1.8989 0.3196 1.2268
C 0.0334 1.1612 0.0393
C -1.4328 1.1279 -0.3761
H -2.3575 0.1742 -2.1147
H -1.0948 1.3590 -2.5015
H 0.0799 -0.7449 -2.7234
H -0.7409 -1.4257 -1.3235
H 1.4950 0.6223 -1.4617
H 2.3203 -1.3320 -0.2140
H 1.1102 -2.2849 1.7098
H -0.1581 -2.2205 0.4933
H 0.0527 -0.7402 2.9896
H -1.2634 -0.6059 1.8309
H 0.3293 1.5765 2.1954
H 2.3831 -0.0893 2.1205
H 2.5307 1.1060 0.7997
H 0.4478 2.1519 -0.1945
H -1.8844 2.1246 -0.3461
H -2.0440 0.4778 0.2534


--link1--
%nproc=64
%mem=256GB
%oldchk=0000007.chk
%chk=0000007_1.chk
#p m062x/def2tzvp geom=check em=gd3

C1CC2C3CCC(C3)C2C1

0 1


--link1--
%nproc=64
%mem=256GB
%oldchk=0000007.chk
%chk=0000007_2.chk
#p m062x/def2tzvp scrf=solvent=water geom=check em=gd3

C1CC2C3CCC(C3)C2C1

0 1


