%nproc=64
%mem=256GB
%chk=0000013.chk
#p opt freq b3lyp/6-31g* em=gd3bj

CCC12C(C)CC3CCCC1C32

0 1
C -2.1070 0.7688 2.4043
C -0.8484 1.1790 1.6522
C -0.4859 0.2494 0.5089
C -1.2149 0.3869 -0.8348
C -2.1603 1.5656 -1.0030
C -1.9485 -0.9628 -0.9773
C -0.9685 -1.9931 -0.3794
C 0.0704 -2.4667 -1.4155
C 1.5250 -2.2238 -1.0131
C 1.7547 -0.7755 -0.5865
C 0.8915 -0.4289 0.5870
C -0.3581 -1.2329 0.7743
H -2.3617 1.5276 3.1512
H -1.9606 -0.1781 2.9330
H -2.9648 0.6452 1.7391
H -0.0246 1.2208 2.3758
H -0.9564 2.2036 1.2817
H -0.4724 0.4707 -1.6359
H -2.6104 1.5508 -2.0017
H -1.6246 2.5144 -0.8972
H -2.9782 1.5550 -0.2784
H -2.8665 -0.9520 -0.3751
H -2.2322 -1.1814 -2.0116
H -1.5316 -2.8587 -0.0120
H -0.1085 -1.9894 -2.3873
H -0.0706 -3.5405 -1.5920
H 1.7905 -2.8990 -0.1897
H 2.1839 -2.4713 -1.8531
H 2.8072 -0.6548 -0.3032
H 1.5863 -0.0925 -1.4246
H 1.4967 -0.2545 1.4717
H -0.5801 -1.6451 1.7476


--link1--
%nproc=64
%mem=256GB
%oldchk=0000013.chk
%chk=0000013_1.chk
#p m062x/def2tzvp geom=check em=gd3

CCC12C(C)CC3CCCC1C32

0 1


--link1--
%nproc=64
%mem=256GB
%oldchk=0000013.chk
%chk=0000013_2.chk
#p m062x/def2tzvp scrf=solvent=water geom=check em=gd3

CCC12C(C)CC3CCCC1C32

0 1


