%nproc=64
%mem=512GB
%chk=0000021.chk
#p opt freq b3lyp/6-31g* em=gd3bj

CCC12CC1CC1CC(C)C2C1

0 1
C 2.8925 -1.0053 -0.2011
C 1.8489 -0.0434 -0.7556
C 0.4109 -0.5343 -0.4805
C 0.0373 -1.5144 -1.4927
C -0.7811 -0.2261 -1.4735
C -0.9639 1.2442 -1.2326
C -1.3418 1.5107 0.2698
C -2.3728 0.4904 0.8096
C -1.5134 -0.6848 1.3537
C -2.0364 -2.0731 1.0321
C -0.0489 -0.3352 0.9767
C -0.1417 1.2008 1.1757
H 2.7619 -2.0121 -0.6102
H 2.8313 -1.0742 0.8890
H 3.8986 -0.6608 -0.4603
H 2.0368 0.9516 -0.3485
H 2.0101 0.0603 -1.8370
H -0.4171 -2.4448 -1.1722
H 0.6551 -1.6731 -2.3731
H -1.8035 -0.6036 -1.4533
H -0.0826 1.8269 -1.5249
H -1.7916 1.5967 -1.8607
H -1.6853 2.5428 0.3898
H -3.1121 0.1918 0.0604
H -2.9308 0.9368 1.6426
H -1.5619 -0.6131 2.4521
H -2.9480 -2.2694 1.6078
H -1.3019 -2.8381 1.3023
H -2.3041 -2.1993 -0.0181
H 0.6558 -0.7968 1.6745
H -0.3612 1.4510 2.2221
H 0.7426 1.7729 0.8949


--link1--
%nproc=64
%mem=512GB
%oldchk=0000021.chk
%chk=0000021_1.chk
"#p m062x/def2tzvp geom=check em=gd3

CCC12CC1CC1CC(C)C2C1

0 1


--link1--
%nproc=64
%mem=512GB
%oldchk=0000021.chk
%chk=0000021_2.chk
#p m062x/def2tzvp scrf=solvent=water geom=check em=gd3"

CCC12CC1CC1CC(C)C2C1

0 1


