%nproc=64
%mem=256GB
%chk=0000020.chk
#p opt freq b3lyp/6-31g* em=gd3bj

CC12CC1CC2C1CC1

0 1
C -0.8779 -0.5718 -2.0938
C -0.7517 0.0907 -0.7510
C -1.9755 0.4407 -0.0370
C -1.1217 1.5827 -0.5683
C 0.3765 1.8117 -0.7036
C 0.6318 0.3598 -0.2496
C 0.9577 0.0061 1.1887
C 0.6969 0.8754 2.3881
C 2.1087 0.6213 1.9398
H -1.9017 -0.5263 -2.4799
H -0.2221 -0.1024 -2.8348
H -0.5973 -1.6267 -2.0116
H -2.0040 0.2645 1.0342
H -2.9424 0.2899 -0.5056
H -1.2971 2.3061 0.2251
H 0.8090 2.5889 -0.0644
H 0.6750 2.0310 -1.7372
H 1.4069 -0.1138 -0.8710
H 0.8121 -1.0634 1.3122
H 0.2906 1.8687 2.2430
H 0.3566 0.3915 3.2969
H 2.6493 1.4404 1.4798
H 2.7254 -0.0324 2.5460


--link1--
%nproc=64
%mem=256GB
%oldchk=0000020.chk
%chk=0000020_1.chk
#p m062x/def2tzvp geom=check em=gd3

CC12CC1CC2C1CC1

0 1


--link1--
%nproc=64
%mem=256GB
%oldchk=0000020.chk
%chk=0000020_2.chk
#p m062x/def2tzvp scrf=solvent=water geom=check em=gd3

CC12CC1CC2C1CC1

0 1


