%nproc=64
%mem=512GB
%chk=0000004.chk
#p opt freq b3lyp/6-31g* em=gd3bj

CC1C2C1(C)C21CCC1C

0 1
C 0.0602 -2.8364 2.5166
C -0.0516 -2.6698 1.0380
C 0.2844 -1.3870 0.3669
C -1.1744 -1.9163 0.4034
C -1.8051 -2.3100 -0.8855
C -0.8394 -0.5238 0.7944
C -1.0786 0.0883 2.1286
C -2.0234 1.0516 1.3970
C -1.2861 0.7201 0.0854
C -0.1968 1.6987 -0.3301
H -0.9187 -3.0454 2.9592
H 0.7161 -3.6827 2.7480
H 0.4912 -1.9575 3.0049
H 0.2603 -3.5849 0.5419
H 0.7308 -1.3396 -0.6147
H -2.7968 -1.8546 -0.9712
H -1.9372 -3.3959 -0.9289
H -1.2154 -2.0038 -1.7555
H -0.1963 0.5679 2.5668
H -1.5710 -0.5179 2.8933
H -3.0730 0.7315 1.4052
H -1.9789 2.0932 1.7288
H -1.9748 0.5475 -0.7506
H 0.3702 1.3048 -1.1798
H 0.5078 1.9008 0.4834
H -0.6385 2.6521 -0.6377


--link1--
%nproc=64
%mem=512GB
%oldchk=0000004.chk
%chk=0000004_1.chk
"#p m062x/def2tzvp geom=check em=gd3

CC1C2C1(C)C21CCC1C

0 1


--link1--
%nproc=64
%mem=512GB
%oldchk=0000004.chk
%chk=0000004_2.chk
#p m062x/def2tzvp scrf=solvent=water geom=check em=gd3"

CC1C2C1(C)C21CCC1C

0 1


