%nproc=64
%mem=512GB
%chk=0000018.chk
#p opt freq b3lyp/6-31g* em=gd3bj

CCCC12C3CC3CC1C2CC

0 1
C -3.1159 1.2926 -0.0292
C -2.0660 2.2094 -0.6362
C -0.7454 2.2442 0.1341
C -0.0043 0.9219 0.1528
C -0.3895 -0.0590 1.3110
C -0.0403 -1.5260 1.3463
C 0.9005 -0.5295 1.9641
C 2.0819 0.0474 1.2120
C 1.5264 0.9739 0.1476
C 0.8035 0.4409 -1.0625
C 0.9254 1.1889 -2.3571
C 0.1072 0.5374 -3.4622
H -4.0650 1.4047 -0.5633
H -2.8197 0.2423 -0.1032
H -3.2908 1.5350 1.0236
H -1.8952 1.9163 -1.6756
H -2.4734 3.2274 -0.6622
H -0.1136 3.0277 -0.3016
H -0.9340 2.5655 1.1663
H -1.1865 0.2586 1.9779
H 0.2497 -2.0214 0.4289
H -0.6128 -2.1610 2.0137
H 0.9929 -0.4813 3.0395
H 2.7138 0.6173 1.9014
H 2.6876 -0.7465 0.7634
H 2.0340 1.9265 0.0914
H 0.8768 -0.6279 -1.2357
H 1.9789 1.1912 -2.6616
H 0.6283 2.2366 -2.2548
H 0.4622 -0.4792 -3.6626
H 0.1905 1.1142 -4.3884
H -0.9503 0.4701 -3.1911


--link1--
%nproc=64
%mem=512GB
%oldchk=0000018.chk
%chk=0000018_1.chk
"#p m062x/def2tzvp geom=check em=gd3

CCCC12C3CC3CC1C2CC

0 1


--link1--
%nproc=64
%mem=512GB
%oldchk=0000018.chk
%chk=0000018_2.chk
#p m062x/def2tzvp scrf=solvent=water geom=check em=gd3"

CCCC12C3CC3CC1C2CC

0 1


