%nproc=64
%mem=512GB
%chk=0000019.chk
#p opt freq b3lyp/6-31g* em=gd3bj

CCCC1C2CCCC2C2CC12

0 1
C -2.1196 3.1217 1.9512
C -1.9153 1.7335 1.3646
C -0.6185 1.6543 0.5559
C -0.4199 0.2820 -0.0855
C 0.8312 0.2211 -0.9637
C 0.9254 0.6108 -2.4177
C 2.1502 -0.2234 -2.8823
C 2.3776 -1.3244 -1.8104
C 1.0807 -1.2878 -1.0507
C 0.9020 -1.7722 0.3469
C 1.2159 -0.9938 1.6015
C -0.1292 -0.8327 0.9364
H -1.2968 3.3890 2.6220
H -3.0510 3.1572 2.5250
H -2.1786 3.8770 1.1611
H -1.8978 1.0030 2.1810
H -2.7694 1.4855 0.7239
H 0.2290 1.8945 1.2100
H -0.6406 2.4172 -0.2323
H -1.3056 0.0047 -0.6712
H 1.6572 0.7251 -0.4368
H 1.0815 1.6836 -2.5616
H 0.0284 0.3150 -2.9736
H 3.0434 0.4048 -2.9696
H 1.9545 -0.6643 -3.8657
H 3.2296 -1.0681 -1.1702
H 2.5773 -2.3009 -2.2614
H 0.3040 -1.7720 -1.6639
H 0.7446 -2.8399 0.4213
H 1.2503 -1.5436 2.5368
H 1.9383 -0.1883 1.5599
H -1.0098 -1.2476 1.4068


--link1--
%nproc=64
%mem=512GB
%oldchk=0000019.chk
%chk=0000019_1.chk
"#p m062x/def2tzvp geom=check em=gd3

CCCC1C2CCCC2C2CC12

0 1


--link1--
%nproc=64
%mem=512GB
%oldchk=0000019.chk
%chk=0000019_2.chk
#p m062x/def2tzvp scrf=solvent=water geom=check em=gd3"

CCCC1C2CCCC2C2CC12

0 1


