%nproc=64
%mem=512GB
%chk=0000022.chk
#p opt freq b3lyp/6-31g* em=gd3bj

CC(C)CCC1CC1C1C2CC21

0 1
C -0.7738 -0.1716 -3.4089
C 0.2051 0.3497 -2.3562
C 1.6106 0.4399 -2.9549
C 0.2304 -0.5292 -1.0930
C -1.1118 -0.5737 -0.3547
C -0.9768 -1.2547 0.9713
C -2.0875 -1.1616 1.9789
C -0.7347 -0.5609 2.2968
C -0.5911 0.9175 2.6389
C 0.0946 1.9203 1.7699
C -0.4736 3.1511 2.3843
C -1.3994 2.0319 2.0608
H -0.5467 -1.2072 -3.6839
H -1.8056 -0.1329 -3.0466
H -0.7267 0.4374 -4.3181
H -0.1039 1.3638 -2.0725
H 2.3179 0.8522 -2.2274
H 1.9760 -0.5458 -3.2625
H 1.6185 1.0938 -3.8334
H 0.5327 -1.5516 -1.3553
H 1.0037 -0.1528 -0.4116
H -1.8344 -1.1431 -0.9511
H -1.5217 0.4330 -0.2537
H -0.5311 -2.2393 0.8481
H -2.9150 -0.4914 1.7763
H -2.3751 -2.0626 2.5090
H -0.1105 -1.1675 2.9618
H -0.3956 1.0277 3.7116
H 0.3123 1.8088 0.7222
H -0.2546 3.3687 3.4249
H -0.5252 4.0464 1.7739
H -2.0164 1.9841 1.1812


--link1--
%nproc=64
%mem=512GB
%oldchk=0000022.chk
%chk=0000022_1.chk
"#p m062x/def2tzvp geom=check em=gd3

CC(C)CCC1CC1C1C2CC21

0 1


--link1--
%nproc=64
%mem=512GB
%oldchk=0000022.chk
%chk=0000022_2.chk
#p m062x/def2tzvp scrf=solvent=water geom=check em=gd3"

CC(C)CCC1CC1C1C2CC21

0 1


