%nproc=64
%mem=512GB
%chk=0000001.chk
#p opt freq b3lyp/6-31g* em=gd3bj

CCCC1C2CC3CCC(C3)C12

0 1
C -3.9942 -1.8294 -0.2462
C -2.7892 -2.7601 -0.2153
C -1.5096 -2.0656 0.2652
C -0.9236 -1.1407 -0.7617
C 0.5455 -1.1113 -1.1768
C 1.6367 -1.9328 -0.5372
C 2.2601 -1.2612 0.7030
C 2.9319 0.0830 0.3595
C 1.8785 1.1606 0.6702
C 0.5840 0.3688 0.9375
C 1.1568 -0.8440 1.6691
C -0.0457 0.0428 -0.3989
H -4.1840 -1.4026 0.7438
H -3.8525 -1.0065 -0.9527
H -4.8879 -2.3828 -0.5518
H -3.0154 -3.5875 0.4680
H -2.6352 -3.1961 -1.2092
H -0.7949 -2.8543 0.5167
H -1.7314 -1.5130 1.1853
H -1.6299 -0.9550 -1.5682
H 0.7476 -0.9494 -2.2316
H 1.2524 -2.9232 -0.2707
H 2.4265 -2.1074 -1.2785
H 2.9749 -1.9482 1.1677
H 3.8141 0.2440 0.9899
H 3.2621 0.1281 -0.6837
H 2.1749 1.7112 1.5715
H 1.7876 1.8840 -0.1466
H -0.1174 0.9355 1.5569
H 1.5857 -0.5424 2.6337
H 0.4449 -1.6415 1.8754
H -0.2687 0.9580 -0.9436


--link1--
%nproc=64
%mem=512GB
%oldchk=0000001.chk
%chk=0000001_1.chk
"#p m062x/def2tzvp geom=check em=gd3

CCCC1C2CC3CCC(C3)C12

0 1


--link1--
%nproc=64
%mem=512GB
%oldchk=0000001.chk
%chk=0000001_2.chk
#p m062x/def2tzvp scrf=solvent=water geom=check em=gd3"

CCCC1C2CC3CCC(C3)C12

0 1


