%nproc=64
%mem=256GB
%chk=0000016.chk
#p opt freq b3lyp/6-31g* em=gd3bj

CC(C)CC1C2CC2C1C1CC1

0 1
C -2.7491 -0.3456 -3.1805
C -1.6836 0.4758 -2.4406
C -2.3756 1.5780 -1.6419
C -0.8239 -0.4736 -1.5858
C 0.4099 0.1074 -0.8872
C 1.2089 1.2016 -1.5013
C 2.4568 1.7659 -0.8947
C 1.1295 2.0100 -0.2464
C 0.2507 0.9865 0.3984
C 0.7047 0.4121 1.7256
C 0.2978 0.9909 3.0536
C -0.2101 -0.3615 2.6361
H -3.3487 0.2939 -3.8372
H -3.4277 -0.8411 -2.4776
H -2.2844 -1.1159 -3.8053
H -1.0603 0.9472 -3.2083
H -2.9124 1.1696 -0.7794
H -3.1003 2.1150 -2.2641
H -1.6581 2.3222 -1.2884
H -1.4534 -0.9681 -0.8344
H -0.4697 -1.2761 -2.2478
H 1.0755 -0.7491 -0.6845
H 0.8101 1.6247 -2.4101
H 2.9386 2.5966 -1.3972
H 3.1475 1.0844 -0.4119
H 0.6708 2.9888 -0.2882
H -0.7668 1.3798 0.5225
H 1.7266 0.0569 1.6338
H 1.0460 1.0353 3.8366
H -0.4042 1.8167 3.0628
H 0.1932 -1.2336 3.1378
H -1.2560 -0.4484 2.3648


--link1--
%nproc=64
%mem=256GB
%oldchk=0000016.chk
%chk=0000016_1.chk
#p m062x/def2tzvp geom=check em=gd3

CC(C)CC1C2CC2C1C1CC1

0 1


--link1--
%nproc=64
%mem=256GB
%oldchk=0000016.chk
%chk=0000016_2.chk
#p m062x/def2tzvp scrf=solvent=water geom=check em=gd3

CC(C)CC1C2CC2C1C1CC1

0 1


