%nproc=64
%mem=256GB
%chk=0000011.chk
#p opt freq b3lyp/6-31g* em=gd3bj

CCC12CCC(C)C1C1CCC12

0 1
C -1.5555 2.3510 -1.6278
C -0.2537 1.6006 -1.8092
C 0.5562 1.2683 -0.5441
C 1.7675 0.3718 -0.9890
C 1.8221 -0.8160 -0.0340
C 0.3809 -0.9756 0.4339
C 0.2456 -1.7953 1.7047
C -0.0996 0.4630 0.6202
C 0.6850 1.3525 1.6258
C -0.1534 2.4042 2.3405
C -0.0679 3.2942 1.0968
C 0.9886 2.3504 0.4932
H -2.1706 1.9342 -0.8266
H -2.1408 2.3033 -2.5530
H -1.3746 3.4117 -1.4357
H -0.5029 0.6610 -2.3204
H 0.3778 2.1705 -2.5025
H 2.7091 0.9314 -0.9940
H 1.6199 -0.0109 -2.0065
H 2.2012 -1.7181 -0.5248
H 2.4973 -0.5950 0.8005
H -0.2089 -1.4521 -0.3601
H 0.5914 -2.8210 1.5404
H 0.8281 -1.3723 2.5295
H -0.8000 -1.8347 2.0277
H -1.1888 0.5433 0.7046
H 1.5398 0.9402 2.1633
H -1.1613 2.0931 2.6299
H 0.3432 2.8327 3.2182
H -1.0294 3.3946 0.5996
H 0.3055 4.3035 1.3014
H 2.0101 2.7353 0.4502


--link1--
%nproc=64
%mem=256GB
%oldchk=0000011.chk
%chk=0000011_1.chk
#p m062x/def2tzvp geom=check em=gd3

CCC12CCC(C)C1C1CCC12

0 1


--link1--
%nproc=64
%mem=256GB
%oldchk=0000011.chk
%chk=0000011_2.chk
#p m062x/def2tzvp scrf=solvent=water geom=check em=gd3

CCC12CCC(C)C1C1CCC12

0 1


