%nproc=64
%mem=512GB
%chk=0000006.chk
#p opt freq b3lyp/6-31g* em=gd3bj

CCC12CCC3CCC(C1C)C32

0 1
C 3.0187 -0.8953 -0.4972
C 2.0759 -1.9736 0.0164
C 0.6329 -1.8114 -0.4755
C 0.4850 -1.8023 -2.0104
C 0.2260 -0.3448 -2.3784
C -0.5249 0.2848 -1.2061
C -2.0485 0.1869 -1.2616
C -2.4030 -1.1822 -0.7007
C -1.3500 -1.4255 0.3788
C -0.4543 -2.6873 0.2575
C -0.1321 -3.3300 1.6016
C -0.1313 -0.5497 0.0089
H 4.0094 -1.0199 -0.0479
H 2.6576 0.1062 -0.2442
H 3.1425 -0.9497 -1.5824
H 2.4582 -2.9574 -0.2808
H 2.1105 -1.9397 1.1110
H 1.3705 -2.1924 -2.5229
H -0.3548 -2.4225 -2.3411
H -0.3057 -0.2468 -3.3299
H 1.1877 0.1685 -2.4964
H -0.2270 1.3337 -1.1008
H -2.4550 0.3468 -2.2646
H -2.4760 0.9558 -0.6052
H -3.4155 -1.1917 -0.2845
H -2.3680 -1.9408 -1.4887
H -1.7389 -1.2204 1.3834
H -0.8825 -3.4675 -0.3865
H -1.0289 -3.7935 2.0264
H 0.6228 -4.1138 1.4835
H 0.2394 -2.5983 2.3262
H 0.3100 -0.0107 0.8531


--link1--
%nproc=64
%mem=512GB
%oldchk=0000006.chk
%chk=0000006_1.chk
"#p m062x/def2tzvp geom=check em=gd3

CCC12CCC3CCC(C1C)C32

0 1


--link1--
%nproc=64
%mem=512GB
%oldchk=0000006.chk
%chk=0000006_2.chk
#p m062x/def2tzvp scrf=solvent=water geom=check em=gd3"

CCC12CCC3CCC(C1C)C32

0 1


