%nproc=64
%mem=512GB
%chk=0000002.chk
#p opt freq b3lyp/6-31g* em=gd3bj

CCCC1CC2(CC)C3CC3C12

0 1
C 3.4249 1.8360 -0.0386
C 2.3730 1.7730 1.0591
C 1.7125 0.3990 1.1903
C 0.8154 0.0761 0.0001
C -0.4811 0.8974 -0.1844
C -1.2807 -0.4262 -0.3544
C -1.8493 -0.6265 -1.7556
C -2.2093 -2.0681 -2.0832
C -2.0171 -0.9771 0.8193
C -1.5977 -0.8444 2.2486
C -0.7765 -1.6664 1.3064
C -0.0255 -1.2130 0.1071
H 2.9794 1.7146 -1.0300
H 3.9289 2.8077 -0.0193
H 4.1836 1.0590 0.0983
H 2.8584 2.0149 2.0123
H 1.6174 2.5465 0.8817
H 1.1305 0.3876 2.1184
H 2.4836 -0.3738 1.2935
H 1.4038 0.0528 -0.9285
H -0.7807 1.4979 0.6818
H -0.4648 1.5612 -1.0556
H -2.7402 0.0007 -1.8794
H -1.1218 -0.2861 -2.5032
H -2.5554 -2.1386 -3.1198
H -3.0134 -2.4432 -1.4444
H -1.3493 -2.7346 -1.9729
H -2.8809 -1.5772 0.5725
H -1.2093 0.1066 2.5912
H -2.1803 -1.3648 3.0008
H -0.7943 -2.7464 1.3855
H 0.3192 -2.0234 -0.5429


--link1--
%nproc=64
%mem=512GB
%oldchk=0000002.chk
%chk=0000002_1.chk
"#p m062x/def2tzvp geom=check em=gd3

CCCC1CC2(CC)C3CC3C12

0 1


--link1--
%nproc=64
%mem=512GB
%oldchk=0000002.chk
%chk=0000002_2.chk
#p m062x/def2tzvp scrf=solvent=water geom=check em=gd3"

CCCC1CC2(CC)C3CC3C12

0 1


