%nproc=64
%mem=512GB
%chk=0000000.chk
#p opt freq b3lyp/6-31g* em=gd3bj

CC1CC2C3(C)CCC123

0 1
C 1.2042 0.2185 -2.3400
C -0.0128 0.4947 -1.4766
C -1.0869 -0.6236 -1.4033
C -1.4516 0.0018 -0.1055
C -0.7737 0.0973 1.1916
C -1.1280 1.2144 2.1244
C 0.1477 -0.9480 1.7038
C 1.1299 -0.5615 0.5855
C 0.0867 0.3595 0.0162
H 0.9432 0.3049 -3.4000
H 1.9980 0.9432 -2.1322
H 1.6077 -0.7865 -2.1856
H -0.4229 1.4783 -1.7595
H -0.7172 -1.6541 -1.3442
H -1.8465 -0.5762 -2.1895
H -2.1869 0.7803 -0.3025
H -1.8396 0.8595 2.8767
H -1.5858 2.0592 1.5986
H -0.2402 1.5899 2.6448
H 0.5443 -0.8102 2.7147
H -0.2489 -1.9667 1.6263
H 2.0240 -0.0277 0.9265
H 1.4446 -1.4186 -0.0171


--link1--
%nproc=64
%mem=512GB
%oldchk=0000000.chk
%chk=0000000_1.chk
"#p m062x/def2tzvp geom=check em=gd3

CC1CC2C3(C)CCC123

0 1


--link1--
%nproc=64
%mem=512GB
%oldchk=0000000.chk
%chk=0000000_2.chk
#p m062x/def2tzvp scrf=solvent=water geom=check em=gd3"

CC1CC2C3(C)CCC123

0 1


