%nproc=128
%mem=1024GB
%chk=00000091.chk
#p opt freq b3lyp/6-31g* em=gd3bj

CC1CCC1CCC(C)C1C2CC21

0 1
C -3.3010 1.3450 1.6026
C -1.8390 0.9670 1.4783
C -1.1495 0.4293 2.7606
C -0.3549 -0.5312 1.8489
C -1.5315 -0.4263 0.8393
C -1.2722 -0.5711 -0.6609
C -0.2868 0.4553 -1.2241
C 0.0815 0.2878 -2.7139
C -1.1229 0.2033 -3.6484
C 1.1810 -0.7300 -2.9418
C 1.2078 -2.1227 -2.4117
C 0.1771 -2.7709 -3.2499
C 1.1130 -1.8441 -3.9295
H -3.4150 2.2437 2.2172
H -3.8888 0.5441 2.0626
H -3.7282 1.5549 0.6169
H -1.2657 1.7931 1.0373
H -1.8216 -0.0851 3.4576
H -0.5509 1.1552 3.3171
H -0.1734 -1.5281 2.2595
H 0.5982 -0.1135 1.5089
H -2.3115 -1.1627 1.0979
H -2.2310 -0.4756 -1.1833
H -0.9123 -1.5867 -0.8455
H 0.6359 0.4591 -0.6332
H -0.7281 1.4530 -1.1062
H 0.5577 1.2428 -2.9865
H -1.7487 1.0962 -3.5391
H -0.8029 0.1511 -4.6946
H -1.7614 -0.6596 -3.4521
H 2.1384 -0.2110 -2.8798
H 2.1201 -2.6186 -2.1138
H -0.8607 -2.5060 -3.1082
H 0.2852 -3.8329 -3.4520
H 1.9719 -2.1827 -4.4905


--link1--
%nproc=128
%mem=1024GB
%oldchk=00000091.chk
%chk=00000091_1.chk
#p m062x/def2tzvp geom=check em=gd3

CC1CCC1CCC(C)C1C2CC21

0 1


--link1--
%nproc=128
%mem=1024GB
%oldchk=00000091.chk
%chk=00000091_2.chk
#p m062x/def2tzvp scrf=solvent=water geom=check em=gd3

CC1CCC1CCC(C)C1C2CC21

0 1


