%nproc=128
%mem=1024GB
%chk=00000086.chk
#p opt freq b3lyp/6-31g* em=gd3bj

CCCCC12CC1C1CC12CC

0 1
C -3.1695 -1.7874 2.5814
C -1.8016 -2.4530 2.5875
C -0.6673 -1.5159 2.1657
C -0.7091 -1.1465 0.6806
C 0.3088 -0.1063 0.2637
C 1.5885 -0.6286 -0.3610
C 1.6440 0.0876 0.9532
C 1.3589 1.5581 1.1194
C 1.0240 2.4591 -0.0339
C 0.0321 1.4052 0.4172
C -1.2460 1.9121 1.0374
C -2.3133 2.1382 -0.0223
H -3.1695 -0.8837 3.1992
H -3.4816 -1.5141 1.5696
H -3.9216 -2.4729 2.9851
H -1.5962 -2.8090 3.6042
H -1.8197 -3.3370 1.9397
H -0.6816 -0.6169 2.7918
H 0.2815 -2.0241 2.3772
H -0.5586 -2.0586 0.0887
H -1.7033 -0.7867 0.4014
H 1.9700 -0.1247 -1.2412
H 1.7810 -1.6954 -0.3594
H 1.8971 -0.4866 1.8341
H 1.3720 1.9774 2.1182
H 1.5389 2.3069 -0.9752
H 0.8216 3.5019 0.1811
H -1.0674 2.8599 1.5606
H -1.6217 1.2182 1.7945
H -3.2371 2.5002 0.4394
H -1.9843 2.8816 -0.7559
H -2.5405 1.2150 -0.5641


--link1--
%nproc=128
%mem=1024GB
%oldchk=00000086.chk
%chk=00000086_1.chk
#p m062x/def2tzvp geom=check em=gd3

CCCCC12CC1C1CC12CC

0 1


--link1--
%nproc=128
%mem=1024GB
%oldchk=00000086.chk
%chk=00000086_2.chk
#p m062x/def2tzvp scrf=solvent=water geom=check em=gd3

CCCCC12CC1C1CC12CC

0 1


