%nproc=128
%mem=1024GB
%chk=00000051.chk
#p opt freq b3lyp/6-31g* em=gd3bj

CCC1(C(C)C2CC2)CCC2CC21

0 1
C -1.8535 -2.5628 1.0796
C -0.5185 -1.8434 0.8907
C -0.5741 -0.3250 0.5295
C 0.8752 0.2388 0.2351
C 1.8346 0.0408 1.4222
C 1.5176 -0.3439 -1.0153
C 1.3906 0.3471 -2.3525
C 2.7070 0.3544 -1.6357
C -1.5549 -0.0428 -0.6536
C -2.0968 1.3690 -0.4115
C -2.2131 1.4434 1.0811
C -1.0887 1.9554 1.9252
C -1.2372 0.4673 1.6816
H -2.3654 -2.7167 0.1255
H -1.6772 -3.5560 1.5072
H -2.5243 -2.0262 1.7553
H 0.0404 -1.9656 1.8266
H 0.0310 -2.3954 0.1218
H 0.7992 1.3203 0.0735
H 2.7683 0.5896 1.2554
H 2.1064 -1.0119 1.5521
H 1.4056 0.4068 2.3593
H 1.5652 -1.4264 -1.0060
H 0.8450 1.2822 -2.4107
H 1.2946 -0.2750 -3.2352
H 3.5058 -0.2624 -2.0322
H 3.0445 1.2936 -1.2122
H -1.1118 -0.1537 -1.6444
H -2.4149 -0.7193 -0.6244
H -3.0650 1.5105 -0.9016
H -1.4048 2.1278 -0.7927
H -3.2274 1.4524 1.4545
H -1.3321 2.3259 2.9163
H -0.2994 2.5218 1.4496
H -1.5495 -0.1326 2.5267


--link1--
%nproc=128
%mem=1024GB
%oldchk=00000051.chk
%chk=00000051_1.chk
#p m062x/def2tzvp geom=check em=gd3

CCC1(C(C)C2CC2)CCC2CC21

0 1


--link1--
%nproc=128
%mem=1024GB
%oldchk=00000051.chk
%chk=00000051_2.chk
#p m062x/def2tzvp scrf=solvent=water geom=check em=gd3

CCC1(C(C)C2CC2)CCC2CC21

0 1


