%nproc=128
%mem=1024GB
%chk=00000072.chk
#p opt freq b3lyp/6-31g* em=gd3bj

CC1CC1C(C)CC1C2CCC1C2

0 1
C -3.5908 -1.2327 -0.6796
C -3.0293 -0.5671 -1.8865
C -2.4176 -1.3942 -2.9850
C -1.5468 -0.4343 -2.2011
C -0.4020 -0.8704 -1.3067
C -0.1986 -2.3830 -1.2103
C -0.4964 -0.1947 0.0765
C 0.8632 -0.1474 0.7831
C 2.0473 0.7574 0.2746
C 3.2013 0.4338 1.2264
C 2.4381 0.4622 2.5576
C 1.0398 0.7927 2.0312
C 1.3015 1.9223 0.9889
H -3.5809 -0.5444 0.1709
H -4.6323 -1.5156 -0.8652
H -3.0516 -2.1392 -0.3980
H -3.6601 0.2660 -2.1846
H -2.3374 -2.4630 -2.8293
H -2.6579 -1.1307 -4.0101
H -1.2715 0.4907 -2.7072
H 0.5013 -0.4879 -1.8012
H -0.1073 -2.8290 -2.2065
H 0.7226 -2.6250 -0.6712
H -1.0227 -2.8796 -0.6927
H -0.9148 0.8104 -0.0403
H -1.2014 -0.7404 0.7140
H 1.1645 -1.1835 0.9949
H 2.2473 0.8350 -0.7925
H 3.9915 1.1904 1.1917
H 3.6393 -0.5490 1.0262
H 2.4703 -0.5048 3.0690
H 2.8201 1.2352 3.2318
H 0.2169 0.9026 2.7358
H 0.4306 2.3375 0.4738
H 1.9166 2.7644 1.3246


--link1--
%nproc=128
%mem=1024GB
%oldchk=00000072.chk
%chk=00000072_1.chk
#p m062x/def2tzvp geom=check em=gd3

CC1CC1C(C)CC1C2CCC1C2

0 1


--link1--
%nproc=128
%mem=1024GB
%oldchk=00000072.chk
%chk=00000072_2.chk
#p m062x/def2tzvp scrf=solvent=water geom=check em=gd3

CC1CC1C(C)CC1C2CCC1C2

0 1


