%nproc=128
%mem=1024GB
%chk=00000052.chk
#p opt freq b3lyp/6-31g* em=gd3bj

CC(C)C1CC1CC1C2CCC1C2

0 1
C -0.8514 1.0083 -3.0261
C -1.3572 -0.4287 -2.8982
C -2.1054 -0.8266 -4.1736
C -2.2623 -0.5678 -1.6993
C -2.5928 -1.9419 -1.1702
C -1.7969 -0.9902 -0.3149
C -0.3859 -1.3561 0.0450
C 0.3566 -0.1697 0.6525
C 1.7434 -0.3963 1.3686
C 1.5107 -1.3786 2.5156
C 0.1982 -0.8101 3.0645
C 0.0139 0.3593 2.0991
C 1.4408 0.9946 2.0172
H -0.1794 1.1101 -3.8847
H -0.3022 1.3150 -2.1321
H -1.6808 1.7121 -3.1587
H -0.4900 -1.0911 -2.8051
H -2.4453 -1.8664 -4.1191
H -2.9893 -0.1981 -4.3296
H -1.4587 -0.7305 -5.0521
H -3.0827 0.1450 -1.7380
H -2.0860 -2.7995 -1.5992
H -3.6205 -2.1409 -0.8862
H -2.3211 -0.5616 0.5350
H 0.1686 -1.7203 -0.8258
H -0.4297 -2.1985 0.7428
H 0.3965 0.6287 -0.1037
H 2.6379 -0.4954 0.7549
H 1.4052 -2.4110 2.1700
H 2.3130 -1.3395 3.2595
H -0.6224 -1.5313 3.0098
H 0.3024 -0.4756 4.1016
H -0.8394 1.0246 2.2237
H 1.5450 1.8674 1.3618
H 1.9386 1.2172 2.9664


--link1--
%nproc=128
%mem=1024GB
%oldchk=00000052.chk
%chk=00000052_1.chk
#p m062x/def2tzvp geom=check em=gd3

CC(C)C1CC1CC1C2CCC1C2

0 1


--link1--
%nproc=128
%mem=1024GB
%oldchk=00000052.chk
%chk=00000052_2.chk
#p m062x/def2tzvp scrf=solvent=water geom=check em=gd3

CC(C)C1CC1CC1C2CCC1C2

0 1


