%nproc=128
%mem=1024GB
%chk=00000056.chk
#p opt freq b3lyp/6-31g* em=gd3bj

CC(CCC1CC1)C1C2CCC1C2

0 1
C -2.1330 -1.9598 -0.9828
C -1.6951 -1.3203 0.3363
C -0.2422 -1.6752 0.7062
C 0.8260 -1.2439 -0.3047
C 2.1978 -1.6379 0.1635
C 3.4056 -0.8822 -0.3252
C 2.9657 -0.7496 1.1069
C -1.8945 0.2028 0.2579
C -3.3419 0.8112 0.3872
C -3.1502 2.3053 0.1178
C -1.8982 2.5499 0.9702
C -1.6904 1.1341 1.5134
C -3.1230 0.6868 1.9254
H -3.2036 -1.8002 -1.1502
H -1.6061 -1.5308 -1.8412
H -1.9531 -3.0397 -0.9721
H -2.3288 -1.7500 1.1200
H -0.0043 -1.2375 1.6838
H -0.1750 -2.7627 0.8447
H 0.7826 -0.1609 -0.4640
H 0.6472 -1.7222 -1.2735
H 2.2988 -2.7118 0.2801
H 4.3086 -1.4467 -0.5287
H 3.2590 -0.0318 -0.9814
H 2.5207 0.1894 1.4162
H 3.5704 -1.2253 1.8708
H -1.3618 0.5699 -0.6328
H -4.1841 0.2941 -0.0694
H -4.0018 2.9006 0.4614
H -2.9722 2.5153 -0.9415
H -2.0817 3.2765 1.7678
H -1.0509 2.8894 0.3663
H -0.8621 0.9486 2.1947
H -3.6892 1.3797 2.5574
H -3.2199 -0.3104 2.3636


--link1--
%nproc=128
%mem=1024GB
%oldchk=00000056.chk
%chk=00000056_1.chk
#p m062x/def2tzvp geom=check em=gd3

CC(CCC1CC1)C1C2CCC1C2

0 1


--link1--
%nproc=128
%mem=1024GB
%oldchk=00000056.chk
%chk=00000056_2.chk
#p m062x/def2tzvp scrf=solvent=water geom=check em=gd3

CC(CCC1CC1)C1C2CCC1C2

0 1


