%nproc=128
%mem=1024GB
%chk=00000049.chk
#p opt freq b3lyp/6-31g* em=gd3bj

CC1CCC1CC(C)C1C2CC21

0 1
C 0.2309 1.4532 2.6472
C 1.3115 0.4054 2.4169
C 2.7396 0.8552 2.8213
C 2.9841 1.2182 1.3432
C 1.8823 0.1904 0.9728
C 1.0418 0.5435 -0.2500
C -0.1223 -0.4475 -0.4567
C 0.3729 -1.8020 -0.9777
C -1.1103 0.1362 -1.4454
C -2.5388 -0.2859 -1.4941
C -3.0259 0.2841 -0.2138
C -2.1421 1.1355 -1.0476
H 0.4910 2.4183 2.2012
H -0.7225 1.1277 2.2205
H 0.0762 1.6105 3.7197
H 1.0103 -0.5364 2.8936
H 3.3711 0.0335 3.1796
H 2.8107 1.6853 3.5293
H 2.7401 2.2589 1.1001
H 3.9849 0.9958 0.9632
H 2.3230 -0.8116 0.8641
H 1.6792 0.5586 -1.1434
H 0.6459 1.5613 -0.1457
H -0.6035 -0.6320 0.5087
H 0.9167 -1.6906 -1.9222
H 1.0348 -2.2919 -0.2577
H -0.4704 -2.4769 -1.1616
H -0.6259 0.3040 -2.4053
H -3.1242 -0.3042 -2.4013
H -2.6601 -0.1133 0.7253
H -4.0751 0.5567 -0.1485
H -2.5060 1.9105 -1.7055


--link1--
%nproc=128
%mem=1024GB
%oldchk=00000049.chk
%chk=00000049_1.chk
#p m062x/def2tzvp geom=check em=gd3

CC1CCC1CC(C)C1C2CC21

0 1


--link1--
%nproc=128
%mem=1024GB
%oldchk=00000049.chk
%chk=00000049_2.chk
#p m062x/def2tzvp scrf=solvent=water geom=check em=gd3

CC1CCC1CC(C)C1C2CC21

0 1


