%nproc=128
%mem=1024GB
%chk=00000027.chk
#p opt freq b3lyp/6-31g* em=gd3bj

CC(C)C1C2CC21CCCC1CC1

0 1
C -4.7433 -1.4439 -1.5864
C -3.4684 -0.6368 -1.3096
C -3.7471 0.3505 -0.1750
C -2.3034 -1.5743 -1.0568
C -1.5268 -1.5806 0.2207
C -0.2775 -2.2078 -0.2898
C -0.8789 -1.0940 -1.0816
C -0.3741 0.3109 -1.1259
C 0.9695 0.3802 -1.8540
C 1.4786 1.8184 -1.9520
C 2.7913 1.8821 -2.6749
C 3.7295 3.0348 -2.4309
C 4.0832 1.6602 -1.9332
H -4.6078 -2.1040 -2.4502
H -5.5888 -0.7824 -1.8026
H -5.0081 -2.0710 -0.7277
H -3.2461 -0.0627 -2.2178
H -4.5912 1.0017 -0.4271
H -3.9940 -0.1713 0.7562
H -2.8866 0.9965 0.0208
H -2.4761 -2.5315 -1.5464
H -1.5644 -0.8427 1.0036
H -0.3234 -3.2159 -0.6899
H 0.6412 -2.0208 0.2560
H -1.0929 0.9428 -1.6592
H -0.2646 0.7268 -0.1171
H 1.7101 -0.2382 -1.3316
H 0.8675 -0.0471 -2.8599
H 1.5711 2.2457 -0.9459
H 0.7505 2.4328 -2.4948
H 2.7181 1.5091 -3.6912
H 4.2828 3.4260 -3.2773
H 3.4558 3.7847 -1.6974
H 4.8740 1.1224 -2.4438
H 4.0467 1.4828 -0.8643


--link1--
%nproc=128
%mem=1024GB
%oldchk=00000027.chk
%chk=00000027_1.chk
#p m062x/def2tzvp geom=check em=gd3

CC(C)C1C2CC21CCCC1CC1

0 1


--link1--
%nproc=128
%mem=1024GB
%oldchk=00000027.chk
%chk=00000027_2.chk
#p m062x/def2tzvp scrf=solvent=water geom=check em=gd3

CC(C)C1C2CC21CCCC1CC1

0 1


