%nproc=128
%mem=1024GB
%chk=00000057.chk
#p opt freq b3lyp/6-31g* em=gd3bj

CCC1CC1(C1CC1)C(C)C1CC1

0 1
C -1.1244 2.1325 -1.7941
C -0.7295 2.7539 -0.4668
C -1.0367 1.8647 0.7025
C -0.2375 2.0583 1.9568
C -0.1304 0.7294 1.2084
C 1.1678 0.3623 0.4315
C 2.3507 1.2831 0.2203
C 2.4852 0.1053 1.1302
C -0.8526 -0.4424 1.9254
C 0.0514 -1.1311 2.9534
C -1.5711 -1.4740 1.0809
C -1.7308 -1.4070 -0.4165
C -0.8391 -2.4522 0.1936
H -0.4983 1.2655 -2.0232
H -2.1695 1.8069 -1.7852
H -0.9980 2.8573 -2.6045
H -1.2886 3.6885 -0.3374
H 0.3283 3.0326 -0.5003
H -2.1090 1.7288 0.8109
H -0.7776 2.0943 2.8974
H 0.6025 2.7416 1.9430
H 0.9744 -0.2717 -0.4340
H 2.8511 1.2441 -0.7411
H 2.3598 2.2661 0.6719
H 2.5576 0.3041 2.1930
H 3.0764 -0.7385 0.7945
H -1.6588 0.0150 2.5183
H -0.5271 -1.8296 3.5683
H 0.8464 -1.7097 2.4729
H 0.5179 -0.4000 3.6218
H -2.4100 -1.8862 1.6386
H -2.6775 -1.7301 -0.8359
H -1.2630 -0.6123 -0.9767
H -1.1843 -3.4805 0.1847
H 0.2316 -2.3560 0.0694


--link1--
%nproc=128
%mem=1024GB
%oldchk=00000057.chk
%chk=00000057_1.chk
#p m062x/def2tzvp geom=check em=gd3

CCC1CC1(C1CC1)C(C)C1CC1

0 1


--link1--
%nproc=128
%mem=1024GB
%oldchk=00000057.chk
%chk=00000057_2.chk
#p m062x/def2tzvp scrf=solvent=water geom=check em=gd3

CCC1CC1(C1CC1)C(C)C1CC1

0 1


