%nproc=128
%mem=1024GB
%chk=00000055.chk
#p opt freq b3lyp/6-31g* em=gd3bj

CCC12CCCC1C1(CC)CC21

0 1
C -1.4009 2.2863 1.7040
C -1.7094 0.8092 1.5037
C -1.3449 0.2816 0.1042
C -2.1394 0.9369 -1.0405
C -1.2134 0.9393 -2.2512
C 0.1921 1.0472 -1.6772
C 0.1494 0.3524 -0.3185
C 0.2211 -1.1449 -0.2489
C 1.2241 -1.7421 0.7042
C 2.6150 -1.7547 0.0906
C -0.6605 -2.0753 -1.0338
C -1.2513 -1.2216 0.0452
H -0.3539 2.5154 1.4868
H -1.5968 2.5685 2.7438
H -2.0241 2.9245 1.0723
H -1.1545 0.2486 2.2670
H -2.7743 0.6330 1.6982
H -3.0750 0.4062 -1.2464
H -2.4008 1.9736 -0.8092
H -1.3309 0.0195 -2.8292
H -1.4384 1.7646 -2.9346
H 0.4412 2.1059 -1.5360
H 0.9448 0.6149 -2.3436
H 0.8227 0.8423 0.3957
H 0.9436 -2.7690 0.9682
H 1.2415 -1.1733 1.6415
H 2.9513 -0.7401 -0.1462
H 3.3342 -2.1997 0.7851
H 2.6277 -2.3365 -0.8369
H -0.8680 -1.8591 -2.0715
H -0.5931 -3.1430 -0.8483
H -1.5868 -1.6998 0.9575


--link1--
%nproc=128
%mem=1024GB
%oldchk=00000055.chk
%chk=00000055_1.chk
#p m062x/def2tzvp geom=check em=gd3

CCC12CCCC1C1(CC)CC21

0 1


--link1--
%nproc=128
%mem=1024GB
%oldchk=00000055.chk
%chk=00000055_2.chk
#p m062x/def2tzvp scrf=solvent=water geom=check em=gd3

CCC12CCCC1C1(CC)CC21

0 1


