%nproc=128
%mem=1024GB
%chk=00000119.chk
#p opt freq b3lyp/6-31g* em=gd3bj

CC1CCC1CCC(C)C1C2CC21

0 1
C -0.2663 3.6996 -0.7336
C -0.7063 2.5911 0.2023
C -2.0189 2.8621 0.9809
C -2.3473 1.3662 0.8214
C -1.4345 1.3632 -0.4344
C -0.6390 0.0751 -0.6357
C 0.3271 0.2197 -1.8139
C 1.1253 -1.0407 -2.2021
C 0.2605 -2.2672 -2.4852
C 2.3427 -1.2760 -1.3305
C 2.3707 -1.2334 0.1594
C 1.6409 -2.4748 0.4947
C 2.6288 -2.5485 -0.6080
H 0.5867 3.3817 -1.3402
H 0.0404 4.5830 -0.1644
H -1.0712 3.9981 -1.4133
H 0.1144 2.2969 0.8722
H -1.8962 3.2116 2.0094
H -2.7277 3.5206 0.4651
H -3.3996 1.1301 0.6425
H -1.9831 0.7503 1.6524
H -2.0024 1.6257 -1.3395
H -0.0941 -0.1689 0.2802
H -1.3430 -0.7421 -0.8250
H -0.2519 0.5372 -2.6918
H 1.0310 1.0354 -1.6080
H 1.5574 -0.7942 -3.1847
H 0.8741 -3.1004 -2.8449
H -0.2921 -2.6177 -1.6121
H -0.4762 -2.0397 -3.2638
H 3.1996 -0.7997 -1.8082
H 3.2233 -0.8809 0.7212
H 0.5807 -2.5333 0.2930
H 1.8903 -2.9711 1.4283
H 3.6275 -2.9395 -0.4798


--link1--
%nproc=128
%mem=1024GB
%oldchk=00000119.chk
%chk=00000119_1.chk
#p m062x/def2tzvp geom=check em=gd3

CC1CCC1CCC(C)C1C2CC21

0 1


--link1--
%nproc=128
%mem=1024GB
%oldchk=00000119.chk
%chk=00000119_2.chk
#p m062x/def2tzvp scrf=solvent=water geom=check em=gd3

CC1CCC1CCC(C)C1C2CC21

0 1


