%nproc=128
%mem=1024GB
%chk=00000031.chk
#p opt freq b3lyp/6-31g* em=gd3bj

CC(C)CC12CC3C(C(C)C)C31C2

0 1
C 0.2565 1.0277 3.9471
C 0.7282 0.1168 2.8125
C 1.0253 -1.2805 3.3612
C -0.3037 0.0242 1.6740
C -0.4816 1.3378 0.9521
C -1.6320 2.2162 1.3499
C -2.1951 1.8244 0.0284
C -1.7099 2.3090 -1.2934
C -2.3467 1.8903 -2.5972
C -1.4123 2.2344 -3.7612
C -2.7328 0.4120 -2.6739
C -0.8727 1.3415 -0.4954
C 0.5204 1.7377 -0.0840
H 0.9824 1.0332 4.7675
H 0.1453 2.0614 3.6060
H -0.7059 0.6949 4.3504
H 1.6642 0.5287 2.4141
H 0.1246 -1.7435 3.7785
H 1.7813 -1.2357 4.1524
H 1.4092 -1.9353 2.5718
H -1.2670 -0.3281 2.0645
H 0.0275 -0.7377 0.9555
H -2.2181 1.8958 2.2160
H -1.3864 3.2775 1.4603
H -3.0009 1.1086 0.1154
H -1.4042 3.3511 -1.3291
H -3.2629 2.4821 -2.7175
H -0.4677 1.6843 -3.6862
H -1.1725 3.3033 -3.7665
H -1.8759 1.9902 -4.7227
H -3.1869 0.1814 -3.6438
H -1.8620 -0.2406 -2.5493
H -3.4638 0.1492 -1.9032
H 0.8078 2.7816 -0.1354
H 1.3235 1.0547 -0.3354


--link1--
%nproc=128
%mem=1024GB
%oldchk=00000031.chk
%chk=00000031_1.chk
#p m062x/def2tzvp geom=check em=gd3

CC(C)CC12CC3C(C(C)C)C31C2

0 1


--link1--
%nproc=128
%mem=1024GB
%oldchk=00000031.chk
%chk=00000031_2.chk
#p m062x/def2tzvp scrf=solvent=water geom=check em=gd3

CC(C)CC12CC3C(C(C)C)C31C2

0 1


