%nproc=128
%mem=1024GB
%chk=00000024.chk
#p opt freq b3lyp/6-31g* em=gd3bj

CC(C)C1CC(CC2CC2)C2CC12

0 1
C -0.3082 -1.8278 2.7658
C 0.4497 -0.5532 2.3820
C 0.3881 0.4396 3.5481
C -0.1079 0.0699 1.0865
C -0.0854 -0.8918 -0.1263
C -0.0038 0.0209 -1.3728
C -1.4088 0.3686 -1.8938
C -1.3715 1.0621 -3.2282
C -2.6349 1.6759 -3.7756
C -1.5054 2.5600 -3.3289
C 0.7433 1.2413 -0.8795
C 2.0191 1.1301 -0.0819
C 0.6876 1.2673 0.6129
H -1.3781 -1.6296 2.8914
H -0.1926 -2.6057 2.0048
H 0.0722 -2.2376 3.7078
H 1.5038 -0.8195 2.2299
H 1.0040 1.3228 3.3520
H 0.7630 -0.0194 4.4693
H -0.6390 0.7735 3.7309
H -1.1438 0.3956 1.2519
H 0.8129 -1.5220 -0.0895
H -0.9512 -1.5616 -0.1413
H 0.5705 -0.4802 -2.1609
H -1.9514 0.9777 -1.1599
H -1.9811 -0.5583 -2.0239
H -0.7308 0.5540 -3.9411
H -2.8211 1.5891 -4.8402
H -3.5316 1.6535 -3.1667
H -1.6429 3.1352 -2.4202
H -0.9253 3.0691 -4.0903
H 0.5841 2.1455 -1.4482
H 2.5390 0.1803 -0.0501
H 2.6829 1.9880 -0.0698
H 0.4406 2.1953 1.1100


--link1--
%nproc=128
%mem=1024GB
%oldchk=00000024.chk
%chk=00000024_1.chk
#p m062x/def2tzvp geom=check em=gd3

CC(C)C1CC(CC2CC2)C2CC12

0 1


--link1--
%nproc=128
%mem=1024GB
%oldchk=00000024.chk
%chk=00000024_2.chk
#p m062x/def2tzvp scrf=solvent=water geom=check em=gd3

CC(C)C1CC(CC2CC2)C2CC12

0 1


