%nproc=128
%mem=1024GB
%chk=00000028.chk
#p opt freq b3lyp/6-31g* em=gd3bj

CCC12CCC3CC(CC)(C1)C32

0 1
C 2.3908 0.0896 -1.7978
C 1.0187 -0.4955 -1.5005
C 0.3770 0.1605 -0.2791
C 0.0024 1.6318 -0.4703
C -1.0544 1.9504 0.5854
C -1.7349 0.6249 0.9098
C -1.3158 -0.0516 2.2418
C -0.3411 -0.9730 1.4649
C -0.2165 -2.4517 1.7704
C -1.5531 -3.1754 1.7876
C 0.9828 -0.2442 1.1020
C -0.9554 -0.4703 0.1557
H 2.8413 -0.4214 -2.6545
H 2.3257 1.1551 -2.0387
H 3.0655 -0.0208 -0.9433
H 0.3760 -0.3693 -2.3802
H 1.1211 -1.5758 -1.3407
H -0.4309 1.7859 -1.4666
H 0.8661 2.2981 -0.3786
H -0.5870 2.3851 1.4761
H -1.7682 2.6874 0.2026
H -2.8147 0.6228 0.7299
H -2.1494 -0.5693 2.7280
H -0.8549 0.5985 2.9925
H 0.4250 -2.9348 1.0233
H 0.2742 -2.5864 2.7413
H -1.3969 -4.2465 1.9522
H -2.0882 -3.0549 0.8411
H -2.1983 -2.8095 2.5913
H 1.8552 -0.9052 1.0388
H 1.2583 0.5893 1.7581
H -1.4951 -1.1552 -0.4966


--link1--
%nproc=128
%mem=1024GB
%oldchk=00000028.chk
%chk=00000028_1.chk
#p m062x/def2tzvp geom=check em=gd3

CCC12CCC3CC(CC)(C1)C32

0 1


--link1--
%nproc=128
%mem=1024GB
%oldchk=00000028.chk
%chk=00000028_2.chk
#p m062x/def2tzvp scrf=solvent=water geom=check em=gd3

CCC12CCC3CC(CC)(C1)C32

0 1


