%nproc=128
%mem=1024GB
%chk=00000093.chk
#p opt freq b3lyp/6-31g* em=gd3bj

CCC(C1CC1)C(CC)C1C2CC21

0 1
C -0.5466 2.9185 -1.6868
C 0.0549 2.0745 -0.5702
C -0.6789 0.7298 -0.3430
C -0.4455 -0.2143 -1.5081
C -1.3254 -0.1505 -2.7353
C -1.4170 -1.3296 -1.8153
C -0.2560 0.1082 1.0342
C 1.2071 -0.3903 1.0580
C 1.7020 -0.7346 2.4580
C -1.2091 -0.9974 1.4514
C -1.6245 -1.1267 2.8816
C -2.8955 -1.8657 2.6546
C -2.6193 -0.6658 1.8200
H -1.6193 3.0716 -1.5328
H -0.3952 2.4560 -2.6658
H -0.0656 3.9018 -1.7120
H 1.1131 1.9053 -0.7995
H 0.0162 2.6685 0.3510
H -1.7532 0.9532 -0.2848
H 0.6083 -0.4088 -1.6803
H -2.1619 0.5390 -2.7489
H -0.8564 -0.2944 -3.7021
H -1.0095 -2.2750 -2.1550
H -2.3195 -1.4260 -1.2226
H -0.3408 0.9121 1.7797
H 1.3207 -1.2781 0.4249
H 1.8724 0.3798 0.6544
H 2.7672 -0.9860 2.4267
H 1.5746 0.1116 3.1403
H 1.1728 -1.5985 2.8702
H -1.0275 -1.9120 0.8949
H -1.4656 -0.3894 3.6524
H -2.8560 -2.8466 2.1915
H -3.6691 -1.7925 3.4114
H -3.0028 0.3238 2.0113


--link1--
%nproc=128
%mem=1024GB
%oldchk=00000093.chk
%chk=00000093_1.chk
#p m062x/def2tzvp geom=check em=gd3

CCC(C1CC1)C(CC)C1C2CC21

0 1


--link1--
%nproc=128
%mem=1024GB
%oldchk=00000093.chk
%chk=00000093_2.chk
#p m062x/def2tzvp scrf=solvent=water geom=check em=gd3

CCC(C1CC1)C(CC)C1C2CC21

0 1


