%nproc=128
%mem=1024GB
%chk=00000058.chk
#p opt freq b3lyp/6-31g* em=gd3bj

CC(C)C(C1CC1)C12CCC1C2

0 1
C -2.1592 -0.3894 -0.7977
C -1.6977 0.6894 0.1839
C -2.3518 2.0266 -0.1874
C -0.1481 0.8194 0.3342
C 0.5483 1.2261 -0.9500
C 0.7688 0.3374 -2.1496
C 1.9453 0.8118 -1.3437
C 0.3937 -0.3073 1.2015
C 0.6589 -1.6801 0.6901
C 2.0497 -1.6297 1.3740
C 1.7014 -0.2989 1.9235
C 0.4510 -0.0377 2.6994
H -3.2488 -0.5000 -0.7520
H -1.9062 -0.1365 -1.8312
H -1.7286 -1.3652 -0.5623
H -2.0988 0.4119 1.1689
H -2.0757 2.3472 -1.1970
H -3.4436 1.9422 -0.1543
H -2.0606 2.8141 0.5153
H -0.0101 1.7179 0.9561
H 0.2983 2.2617 -1.1794
H 0.5042 -0.7089 -2.1098
H 0.6196 0.7749 -3.1316
H 2.5875 1.5681 -1.7831
H 2.4885 0.0734 -0.7755
H 0.7117 -1.8517 -0.3840
H -0.0140 -2.4366 1.1117
H 2.2079 -2.4087 2.1271
H 2.8992 -1.6422 0.6842
H 2.4163 0.4800 1.7045
H 0.2925 0.9676 3.0724
H 0.0882 -0.8087 3.3704


--link1--
%nproc=128
%mem=1024GB
%oldchk=00000058.chk
%chk=00000058_1.chk
#p m062x/def2tzvp geom=check em=gd3

CC(C)C(C1CC1)C12CCC1C2

0 1


--link1--
%nproc=128
%mem=1024GB
%oldchk=00000058.chk
%chk=00000058_2.chk
#p m062x/def2tzvp scrf=solvent=water geom=check em=gd3

CC(C)C(C1CC1)C12CCC1C2

0 1


