%nproc=128
%mem=1024GB
%chk=00000059.chk
#p opt freq b3lyp/6-31g* em=gd3bj

CCC12CCC3C(C)C1C32CC

0 1
C 2.6121 -1.6909 1.9260
C 2.6541 -1.0436 0.5503
C 1.3272 -0.4638 0.1635
C 0.7712 0.6961 0.9689
C -0.1714 1.4680 0.0008
C -0.3447 0.5499 -1.2283
C -1.0560 -0.8478 -1.0034
C -2.2247 -0.9386 -0.0418
C 0.2712 -1.3493 -0.4984
C 0.9174 -0.2477 -1.2625
C 1.7230 -0.4803 -2.4871
C 2.5871 0.7265 -2.8133
H 2.3667 -0.9592 2.7023
H 1.8593 -2.4852 1.9631
H 3.5850 -2.1291 2.1695
H 3.4137 -0.2535 0.5415
H 2.9746 -1.7990 -0.1759
H 0.2114 0.3242 1.8338
H 1.5623 1.3598 1.3333
H 0.3127 2.4029 -0.3056
H -1.1245 1.7239 0.4726
H -0.6588 1.0724 -2.1360
H -1.3282 -1.3266 -1.9570
H -1.9778 -0.5512 0.9509
H -3.0795 -0.3718 -0.4242
H -2.5408 -1.9801 0.0786
H 0.4773 -2.3736 -0.7744
H 2.3647 -1.3609 -2.3738
H 1.0578 -0.6863 -3.3339
H 3.1720 0.5430 -3.7198
H 3.2816 0.9448 -1.9954
H 1.9727 1.6179 -2.9771


--link1--
%nproc=128
%mem=1024GB
%oldchk=00000059.chk
%chk=00000059_1.chk
#p m062x/def2tzvp geom=check em=gd3

CCC12CCC3C(C)C1C32CC

0 1


--link1--
%nproc=128
%mem=1024GB
%oldchk=00000059.chk
%chk=00000059_2.chk
#p m062x/def2tzvp scrf=solvent=water geom=check em=gd3

CCC12CCC3C(C)C1C32CC

0 1


