%nproc=128
%mem=1024GB
%chk=00000039.chk
#p opt freq b3lyp/6-31g* em=gd3bj

CC(C)C1C(CCC2CC2)C2CC21

0 1
C -1.9356 -2.0359 -2.1387
C -1.2371 -0.6784 -2.2208
C -2.2002 0.4553 -1.8968
C 0.0456 -0.6772 -1.3708
C 0.2471 -0.3229 0.1646
C -0.8140 0.2195 1.1248
C -1.8005 -0.8409 1.6091
C -1.1676 -1.8784 2.4912
C -1.9711 -2.5179 3.5942
C -0.8530 -1.5710 3.9319
C 1.2506 0.7119 -0.2587
C 2.4247 0.4737 -1.1563
C 1.0308 0.4050 -1.6986
H -1.2750 -2.8325 -2.4984
H -2.8381 -2.0479 -2.7589
H -2.2224 -2.2921 -1.1174
H -0.9358 -0.5544 -3.2705
H -2.7255 0.2876 -0.9535
H -2.9675 0.5323 -2.6753
H -1.6892 1.4209 -1.8398
H 0.5546 -1.6339 -1.5873
H 0.7969 -1.1311 0.6719
H -1.3621 1.0451 0.6598
H -0.3105 0.6500 2.0007
H -2.6026 -0.3313 2.1581
H -2.2772 -1.3428 0.7664
H -0.4897 -2.5271 1.9476
H -1.8172 -3.5738 3.7870
H -2.9879 -2.1825 3.7636
H -1.1166 -0.5964 4.3268
H 0.0569 -1.9861 4.3504
H 1.0234 1.7126 0.0864
H 3.0380 1.3239 -1.4308
H 2.9783 -0.4511 -1.0424
H 0.6453 1.1917 -2.3325


--link1--
%nproc=128
%mem=1024GB
%oldchk=00000039.chk
%chk=00000039_1.chk
#p m062x/def2tzvp geom=check em=gd3

CC(C)C1C(CCC2CC2)C2CC21

0 1


--link1--
%nproc=128
%mem=1024GB
%oldchk=00000039.chk
%chk=00000039_2.chk
#p m062x/def2tzvp scrf=solvent=water geom=check em=gd3

CC(C)C1C(CCC2CC2)C2CC21

0 1


