%nproc=128
%mem=1024GB
%chk=00000022.chk
#p opt freq b3lyp/6-31g* em=gd3bj

CC(C)C1C2CC(CC3CC3C)C21

0 1
C 2.9011 1.2844 1.7277
C 1.4083 1.2337 1.3856
C 1.0845 2.3356 0.3732
C 1.0313 -0.1632 0.9377
C 1.0056 -0.5228 -0.5022
C -0.0018 -0.6307 -1.6079
C -0.8410 -1.4609 -0.5883
C -2.3512 -1.6078 -0.7821
C -3.0776 -0.3543 -1.1791
C -4.4189 -0.4695 -1.8645
C -3.2247 0.0309 -2.6322
C -3.1472 1.4625 -3.0409
C -0.3061 -0.4811 0.4110
H 3.1492 0.5521 2.5038
H 3.1859 2.2745 2.0988
H 3.5160 1.0569 0.8498
H 0.8480 1.4451 2.3052
H 1.6215 2.1869 -0.5699
H 1.3692 3.3172 0.7678
H 0.0147 2.3744 0.1470
H 1.4343 -0.9010 1.6291
H 1.6422 -1.3983 -0.6451
H -0.4128 0.3322 -1.9324
H 0.3190 -1.1843 -2.4957
H -0.4394 -2.4732 -0.4112
H -2.5259 -2.3857 -1.5366
H -2.7944 -1.9828 0.1487
H -2.9957 0.4278 -0.4330
H -4.7986 -1.4559 -2.1073
H -5.1916 0.2382 -1.5843
H -2.8028 -0.6236 -3.3869
H -3.7065 1.6193 -3.9685
H -2.1061 1.7486 -3.2190
H -3.5580 2.1317 -2.2778
H -0.9735 0.3757 0.4300


--link1--
%nproc=128
%mem=1024GB
%oldchk=00000022.chk
%chk=00000022_1.chk
#p m062x/def2tzvp geom=check em=gd3

CC(C)C1C2CC(CC3CC3C)C21

0 1


--link1--
%nproc=128
%mem=1024GB
%oldchk=00000022.chk
%chk=00000022_2.chk
#p m062x/def2tzvp scrf=solvent=water geom=check em=gd3

CC(C)C1C2CC(CC3CC3C)C21

0 1


