%nproc=128
%mem=1024GB
%chk=00000121.chk
#p opt freq b3lyp/6-31g* em=gd3bj

CC(C)CC(C1CC1)C1C2CC21

0 1
C -3.0005 0.1200 1.3249
C -1.8086 1.0206 1.0084
C -0.9579 1.2568 2.2567
C -0.9901 0.5588 -0.2227
C -0.5949 -0.9298 -0.3377
C 0.3677 -1.3527 0.7570
C 1.5893 -2.2199 0.5410
C 1.7529 -0.7597 0.8524
C -0.1824 -1.4087 -1.7218
C 0.9645 -0.9115 -2.5319
C 0.4620 0.3866 -3.0214
C -0.5040 -0.7361 -3.0111
H -3.6084 -0.0516 0.4306
H -2.6842 -0.8504 1.7202
H -3.6434 0.5870 2.0792
H -2.2184 2.0042 0.7372
H -0.6265 0.3254 2.7202
H -0.0751 1.8609 2.0235
H -1.5382 1.8003 3.0109
H -0.0930 1.1859 -0.2790
H -1.6048 0.8125 -1.0964
H -1.5128 -1.5025 -0.1495
H -0.1656 -1.5401 1.6841
H 1.8437 -2.9330 1.3182
H 1.8583 -2.5565 -0.4515
H 2.1014 -0.1103 0.0577
H 2.1172 -0.4850 1.8358
H -0.3067 -2.4935 -1.7345
H 1.5587 -1.5699 -3.1496
H 0.3623 1.2152 -2.3366
H 0.8188 0.7319 -3.9885
H -0.7485 -1.2939 -3.9042


--link1--
%nproc=128
%mem=1024GB
%oldchk=00000121.chk
%chk=00000121_1.chk
#p m062x/def2tzvp geom=check em=gd3

CC(C)CC(C1CC1)C1C2CC21

0 1


--link1--
%nproc=128
%mem=1024GB
%oldchk=00000121.chk
%chk=00000121_2.chk
#p m062x/def2tzvp scrf=solvent=water geom=check em=gd3

CC(C)CC(C1CC1)C1C2CC21

0 1


