%nproc=128
%mem=1024GB
%chk=00000010.chk
#p opt freq b3lyp/6-31g* em=gd3bj

CC(C)C1CC1CC1CC2CC2C1

0 1
C -1.3580 1.8519 0.9765
C 0.0012 1.9740 1.6540
C 1.0132 2.5799 0.6752
C 0.5786 0.7339 2.2949
C -0.2623 -0.1749 3.1593
C 0.3962 -0.7305 1.9190
C -0.4655 -1.2944 0.8315
C 0.2000 -1.2264 -0.5418
C 1.4533 -2.1158 -0.6770
C 1.5479 -2.3951 -2.1502
C 0.7918 -3.5290 -2.7864
C 0.2027 -2.1453 -2.7609
C -0.7335 -1.7105 -1.6699
H -1.7351 2.8456 0.7076
H -1.3027 1.2766 0.0488
H -2.1042 1.3927 1.6302
H -0.1225 2.6998 2.4694
H 0.6428 3.5240 0.2619
H 1.9658 2.7863 1.1756
H 1.2207 1.9012 -0.1576
H 1.5550 0.9809 2.7148
H 0.1417 -0.4718 4.1219
H -1.3390 -0.0581 3.1690
H 1.2600 -1.3714 2.0834
H -1.4418 -0.8022 0.8003
H -0.6801 -2.3421 1.0803
H 0.4948 -0.1944 -0.7675
H 1.3492 -3.0527 -0.1181
H 2.3448 -1.5958 -0.3117
H 2.4241 -1.9870 -2.6334
H 0.3606 -4.2912 -2.1475
H 1.1530 -3.9069 -3.7364
H 0.1420 -1.5632 -3.6692
H -1.3583 -2.5510 -1.3467
H -1.3931 -0.9030 -2.0038


--link1--
%nproc=128
%mem=1024GB
%oldchk=00000010.chk
%chk=00000010_1.chk
#p m062x/def2tzvp geom=check em=gd3

CC(C)C1CC1CC1CC2CC2C1

0 1


--link1--
%nproc=128
%mem=1024GB
%oldchk=00000010.chk
%chk=00000010_2.chk
#p m062x/def2tzvp scrf=solvent=water geom=check em=gd3

CC(C)C1CC1CC1CC2CC2C1

0 1


