%nproc=128
%mem=1024GB
%chk=00000033.chk
#p opt freq b3lyp/6-31g* em=gd3bj

CC(C)C1CC1C(C)C1CCC1C

0 1
C 0.7197 -2.9446 0.9436
C -0.6037 -2.2938 1.3447
C -1.7476 -3.3016 1.2383
C -0.8807 -1.0923 0.4771
C -1.7369 0.0363 0.9945
C -0.2538 0.2432 0.8123
C 0.2629 1.1337 -0.2937
C 1.6828 0.7106 -0.6702
C 0.1604 2.6080 0.1250
C 0.6491 3.7071 -0.8621
C 0.9970 4.5640 0.3719
C 1.1413 3.2411 1.1699
C 0.6770 3.2937 2.6122
H 0.6999 -3.2772 -0.1002
H 0.9357 -3.8127 1.5749
H 1.5487 -2.2364 1.0485
H -0.5236 -1.9813 2.3939
H -2.6956 -2.8475 1.5463
H -1.8708 -3.6574 0.2094
H -1.5646 -4.1698 1.8800
H -0.9880 -1.3569 -0.5704
H -2.1167 -0.0193 2.0086
H -2.4189 0.5114 0.2980
H 0.3545 0.3035 1.7089
H -0.3667 0.9969 -1.1832
H 1.6959 -0.3353 -0.9973
H 2.0839 1.3137 -1.4889
H 2.3695 0.7884 0.1788
H -0.8906 2.8075 0.3965
H -0.1178 4.1218 -1.5220
H 1.5260 3.4500 -1.4644
H 1.9047 5.1673 0.2869
H 0.1733 5.2081 0.7018
H 2.1640 2.8465 1.1092
H -0.3428 3.6834 2.6950
H 0.6955 2.2969 3.0626
H 1.3345 3.9388 3.2037


--link1--
%nproc=128
%mem=1024GB
%oldchk=00000033.chk
%chk=00000033_1.chk
#p m062x/def2tzvp geom=check em=gd3

CC(C)C1CC1C(C)C1CCC1C

0 1


--link1--
%nproc=128
%mem=1024GB
%oldchk=00000033.chk
%chk=00000033_2.chk
#p m062x/def2tzvp scrf=solvent=water geom=check em=gd3

CC(C)C1CC1C(C)C1CCC1C

0 1


