%nproc=128
%mem=1024GB
%chk=00000023.chk
#p opt freq b3lyp/6-31g* em=gd3bj

CCC1C2CC12CC(C)C1CCC1

0 1
C -2.7096 -2.0033 -0.3940
C -2.0208 -1.9507 -1.7492
C -0.5960 -1.4977 -1.6188
C 0.1272 -0.8444 -2.7424
C -0.5737 0.4638 -2.7992
C -0.2245 -0.0614 -1.4533
C 0.9102 0.4315 -0.6114
C 0.5578 1.7581 0.0913
C -0.5609 1.5401 1.1170
C 1.8069 2.3088 0.8049
C 2.9531 2.8542 -0.0989
C 2.3658 4.2631 0.0916
C 1.7182 3.7504 1.3893
H -3.7351 -2.3698 -0.5016
H -2.7475 -1.0104 0.0654
H -2.1776 -2.6703 0.2923
H -2.0278 -2.9535 -2.1923
H -2.6042 -1.3115 -2.4190
H -0.0300 -2.2275 -1.0448
H 1.1837 -0.9673 -2.9238
H -0.0191 1.3168 -3.1790
H -1.6145 0.5013 -3.0993
H 1.1687 -0.3245 0.1411
H 1.8054 0.5619 -1.2300
H 0.2047 2.4810 -0.6548
H -0.8259 2.4740 1.6217
H -1.4698 1.1614 0.6393
H -0.2572 0.8244 1.8889
H 2.1704 1.5830 1.5457
H 2.9880 2.5058 -1.1338
H 3.9493 2.7333 0.3434
H 3.0940 5.0693 0.2103
H 1.6427 4.5490 -0.6806
H 2.3454 3.8977 2.2769
H 0.7233 4.1500 1.5981


--link1--
%nproc=128
%mem=1024GB
%oldchk=00000023.chk
%chk=00000023_1.chk
#p m062x/def2tzvp geom=check em=gd3

CCC1C2CC12CC(C)C1CCC1

0 1


--link1--
%nproc=128
%mem=1024GB
%oldchk=00000023.chk
%chk=00000023_2.chk
#p m062x/def2tzvp scrf=solvent=water geom=check em=gd3

CCC1C2CC12CC(C)C1CCC1

0 1


