%nproc=128
%mem=1024GB
%chk=00000076.chk
#p opt freq b3lyp/6-31g* em=gd3bj

CC(C)C1CC2CC1C2CC1CC1

0 1
C 0.0359 1.4048 -1.1107
C 0.4940 0.1188 -1.7957
C -0.1120 0.0562 -3.2034
C 0.2335 -1.1960 -1.0407
C 0.8943 -1.3576 0.3436
C -0.3174 -1.8629 1.1415
C -1.0610 -2.8144 0.1577
C -1.2243 -1.4702 -0.6307
C -1.4554 -0.8359 0.8008
C -2.8454 -0.9087 1.4381
C -2.9259 -0.4406 2.8667
C -2.7367 1.0218 3.1884
C -1.7464 0.0126 3.6950
H -1.0539 1.4473 -1.0175
H 0.4822 1.5166 -0.1188
H 0.3431 2.2780 -1.6977
H 1.5826 0.1982 -1.9214
H 0.2440 -0.8268 -3.7447
H 0.1738 0.9377 -3.7876
H -1.2056 0.0176 -3.1696
H 0.5850 -2.0129 -1.6879
H 1.2914 -0.4263 0.7565
H 1.6990 -2.0996 0.3173
H -0.1753 -2.1791 2.1735
H -0.4567 -3.5980 -0.3130
H -1.9732 -3.2933 0.5241
H -2.0179 -1.4167 -1.3748
H -1.1286 0.2063 0.8776
H -3.5376 -0.3004 0.8422
H -3.2478 -1.9256 1.4048
H -3.7375 -0.9415 3.3877
H -2.4175 1.6946 2.4005
H -3.4130 1.4743 3.9051
H -0.7504 0.0364 3.2719
H -1.7578 -0.2208 4.7545


--link1--
%nproc=128
%mem=1024GB
%oldchk=00000076.chk
%chk=00000076_1.chk
#p m062x/def2tzvp geom=check em=gd3

CC(C)C1CC2CC1C2CC1CC1

0 1


--link1--
%nproc=128
%mem=1024GB
%oldchk=00000076.chk
%chk=00000076_2.chk
#p m062x/def2tzvp scrf=solvent=water geom=check em=gd3

CC(C)C1CC2CC1C2CC1CC1

0 1


