%nproc=128
%mem=1024GB
%chk=00000007.chk
#p opt freq b3lyp/6-31g* em=gd3bj

CCC1C2CC(CC(C)C3CC3)C12

0 1
C 1.1643 -2.6661 3.4853
C 0.4474 -1.6786 2.5783
C 1.1967 -0.3850 2.4821
C 2.3159 -0.2081 1.5004
C 2.3327 -0.6167 0.0777
C 0.9602 0.0843 -0.1271
C 0.9677 1.1656 -1.2111
C -0.4233 1.7626 -1.5210
C -1.3664 0.7192 -2.1257
C -0.9761 2.5449 -0.3513
C -2.4081 3.0215 -0.3078
C -1.9390 1.9684 0.6580
C 1.0246 0.5204 1.2981
H 1.2841 -2.2577 4.4942
H 0.5964 -3.5987 3.5586
H 2.1614 -2.9009 3.0983
H 0.3075 -2.1388 1.5942
H -0.5522 -1.4784 2.9808
H 1.2965 0.0901 3.4529
H 3.1910 0.3656 1.7771
H 3.1645 -0.1980 -0.4998
H 2.3140 -1.6994 -0.0864
H 0.1682 -0.6556 -0.2973
H 1.3642 0.7306 -2.1380
H 1.6599 1.9712 -0.9331
H -0.2545 2.5061 -2.3130
H -0.8828 0.1999 -2.9604
H -2.2718 1.1891 -2.5223
H -1.6797 -0.0361 -1.4000
H -0.2396 3.2562 0.0158
H -3.1009 2.7242 -1.0848
H -2.5973 4.0162 0.0819
H -1.8085 2.2530 1.6968
H -2.3109 0.9594 0.5329
H 1.0332 1.5941 1.4319


--link1--
%nproc=128
%mem=1024GB
%oldchk=00000007.chk
%chk=00000007_1.chk
#p m062x/def2tzvp geom=check em=gd3

CCC1C2CC(CC(C)C3CC3)C12

0 1


--link1--
%nproc=128
%mem=1024GB
%oldchk=00000007.chk
%chk=00000007_2.chk
#p m062x/def2tzvp scrf=solvent=water geom=check em=gd3

CCC1C2CC(CC(C)C3CC3)C12

0 1


