%nproc=128
%mem=1024GB
%chk=00000062.chk
#p opt freq b3lyp/6-31g* em=gd3bj

CCC1CC1C(C)CCC1C2CC12

0 1
C 2.2301 -2.1332 -1.5658
C 3.1061 -1.0629 -0.9387
C 2.3209 -0.1353 -0.0581
C 2.8598 1.2479 0.1911
C 1.6055 1.0689 -0.6320
C 0.2932 1.5660 -0.0670
C 0.2197 3.0897 -0.2292
C -0.9164 0.9178 -0.7654
C -1.1499 -0.5339 -0.3364
C -2.3544 -1.1133 -1.0243
C -3.1632 -2.2048 -0.4143
C -3.7967 -1.4640 0.7056
C -3.7512 -0.7937 -0.6168
H 2.8353 -2.8134 -2.1731
H 1.4686 -1.6862 -2.2130
H 1.7187 -2.7232 -0.7983
H 3.6148 -0.5068 -1.7353
H 3.8860 -1.5429 -0.3365
H 1.8740 -0.6524 0.7843
H 2.7751 1.6459 1.1965
H 3.7597 1.5624 -0.3261
H 1.6857 1.2450 -1.7005
H 0.2429 1.3452 1.0073
H 0.2531 3.3785 -1.2857
H -0.7046 3.4854 0.2046
H 1.0609 3.5784 0.2742
H -0.7954 0.9659 -1.8554
H -1.8216 1.4923 -0.5288
H -0.2873 -1.1483 -0.6061
H -1.2330 -0.5827 0.7540
H -2.1654 -1.1915 -2.0923
H -3.6681 -2.9666 -0.9892
H -3.1854 -1.0865 1.5167
H -4.7607 -1.8146 1.0622
H -4.5830 -0.7698 -1.3048


--link1--
%nproc=128
%mem=1024GB
%oldchk=00000062.chk
%chk=00000062_1.chk
#p m062x/def2tzvp geom=check em=gd3

CCC1CC1C(C)CCC1C2CC12

0 1


--link1--
%nproc=128
%mem=1024GB
%oldchk=00000062.chk
%chk=00000062_2.chk
#p m062x/def2tzvp scrf=solvent=water geom=check em=gd3

CCC1CC1C(C)CCC1C2CC12

0 1


