%nproc=128
%mem=1024GB
%chk=00000060.chk
#p opt freq b3lyp/6-31g* em=gd3bj

CCC(C)C1C2C(C)C3(CC)C1C23

0 1
C 3.9928 -2.3157 1.0352
C 2.8085 -3.0389 1.6601
C 1.5301 -2.1963 1.8437
C 1.7500 -1.0232 2.7969
C 0.9499 -1.7812 0.4812
C 1.3952 -0.4361 -0.2791
C 0.5866 -0.2482 -1.6532
C 0.9060 1.0117 -2.4384
C -0.6243 -0.2612 -0.7580
C -1.9506 0.3144 -1.1021
C -2.1043 1.7896 -0.7721
C -0.4093 -1.1412 0.4602
C 0.2408 0.1805 0.3559
H 3.7776 -2.0106 0.0078
H 4.2809 -1.4328 1.6121
H 4.8590 -2.9850 1.0012
H 2.5765 -3.9166 1.0437
H 3.1186 -3.4251 2.6393
H 0.7981 -2.8630 2.3206
H 2.4067 -0.2592 2.3702
H 2.1979 -1.3663 3.7357
H 0.8000 -0.5403 3.0485
H 0.9565 -2.6519 -0.1925
H 2.4093 -0.0566 -0.1914
H 0.6386 -1.1309 -2.3042
H 1.8901 0.9238 -2.9103
H 0.9235 1.9020 -1.8020
H 0.1693 1.1707 -3.2321
H -2.7363 -0.2425 -0.5774
H -2.1373 0.1654 -2.1721
H -1.9998 1.9684 0.3028
H -1.3592 2.3991 -1.2904
H -3.0958 2.1415 -1.0744
H -1.0995 -1.3275 1.2626
H 0.2014 1.0219 1.0047


--link1--
%nproc=128
%mem=1024GB
%oldchk=00000060.chk
%chk=00000060_1.chk
#p m062x/def2tzvp geom=check em=gd3

CCC(C)C1C2C(C)C3(CC)C1C23

0 1


--link1--
%nproc=128
%mem=1024GB
%oldchk=00000060.chk
%chk=00000060_2.chk
#p m062x/def2tzvp scrf=solvent=water geom=check em=gd3

CCC(C)C1C2C(C)C3(CC)C1C23

0 1


