%nproc=128
%mem=1024GB
%chk=00000118.chk
#p opt freq b3lyp/6-31g* em=gd3bj

CCC12CC1C1(CC)C(C(C)C)C21

0 1
C -4.1495 -1.0261 1.2349
C -3.0870 0.0129 0.9154
C -2.5201 -0.2048 -0.4615
C -2.9649 0.7099 -1.5759
C -1.5527 0.7839 -1.0655
C -0.5320 -0.3239 -1.2714
C -0.0086 -0.5251 -2.6700
C 0.9498 0.5902 -3.0596
C -0.0880 -1.2172 -0.1166
C 0.8192 -2.4143 -0.2445
C 2.2852 -1.9842 -0.2202
C 0.5455 -3.4024 0.8927
C -1.4968 -1.3060 -0.6517
H -4.9676 -0.9862 0.5080
H -3.7305 -2.0376 1.2131
H -4.5665 -0.8511 2.2315
H -3.5299 1.0125 0.9994
H -2.2892 -0.0409 1.6652
H -3.6294 1.5350 -1.3480
H -3.1364 0.2729 -2.5528
H -1.2595 1.6485 -0.4818
H -0.8438 -0.5419 -3.3804
H 0.5047 -1.4840 -2.7816
H 0.4483 1.5634 -3.0485
H 1.7961 0.6432 -2.3675
H 1.3401 0.4216 -4.0680
H 0.0521 -0.7223 0.8409
H 0.6274 -2.9424 -1.1854
H 2.9480 -2.8514 -0.3077
H 2.5312 -1.4596 0.7097
H 2.5095 -1.3065 -1.0493
H 1.1835 -4.2878 0.8029
H -0.4981 -3.7349 0.8763
H 0.7313 -2.9457 1.8712
H -1.7882 -2.1775 -1.2266


--link1--
%nproc=128
%mem=1024GB
%oldchk=00000118.chk
%chk=00000118_1.chk
#p m062x/def2tzvp geom=check em=gd3

CCC12CC1C1(CC)C(C(C)C)C21

0 1


--link1--
%nproc=128
%mem=1024GB
%oldchk=00000118.chk
%chk=00000118_2.chk
#p m062x/def2tzvp scrf=solvent=water geom=check em=gd3

CCC12CC1C1(CC)C(C(C)C)C21

0 1


