%nproc=128
%mem=1024GB
%chk=00000045.chk
#p opt freq b3lyp/6-31g* em=gd3bj

CC(C)C1CC1CC1(C)C2CC1C2

0 1
C -3.3706 -0.7369 -1.9405
C -1.9935 -0.6071 -1.2714
C -1.5004 -2.0000 -0.8943
C -2.0791 0.4234 -0.1694
C -2.5204 0.0783 1.2295
C -1.1351 0.6483 1.0053
C 0.0535 -0.1667 1.3905
C 1.4056 -0.0090 0.6351
C 2.2710 -1.1871 1.1623
C 2.1668 1.3951 0.5437
C 2.9616 0.7904 -0.6884
C 1.4813 0.3023 -0.9347
C 1.1582 1.8049 -0.5897
H -3.7258 0.2354 -2.2993
H -3.3290 -1.4133 -2.8007
H -4.1163 -1.1227 -1.2364
H -1.3074 -0.2085 -2.0288
H -2.0824 -2.4406 -0.0798
H -1.5718 -2.6790 -1.7520
H -0.4488 -1.9888 -0.6034
H -2.4786 1.3489 -0.5864
H -3.2625 0.7194 1.6947
H -2.6145 -0.9597 1.5235
H -1.0148 1.6695 1.3629
H -0.2323 -1.2249 1.3891
H 0.2464 0.0592 2.4492
H 3.3403 -1.1055 0.9651
H 1.9240 -2.1313 0.7280
H 2.1864 -1.2675 2.2530
H 2.5631 2.0121 1.3351
H 3.7378 0.0422 -0.5300
H 3.3763 1.5067 -1.4104
H 1.1307 -0.2810 -1.7714
H 0.1499 2.0976 -0.3222
H 1.5023 2.5613 -1.3085


--link1--
%nproc=128
%mem=1024GB
%oldchk=00000045.chk
%chk=00000045_1.chk
#p m062x/def2tzvp geom=check em=gd3

CC(C)C1CC1CC1(C)C2CC1C2

0 1


--link1--
%nproc=128
%mem=1024GB
%oldchk=00000045.chk
%chk=00000045_2.chk
#p m062x/def2tzvp scrf=solvent=water geom=check em=gd3

CC(C)C1CC1CC1(C)C2CC1C2

0 1


