%nproc=128
%mem=1024GB
%chk=00000078.chk
#p opt freq b3lyp/6-31g* em=gd3bj

CC(C)C1CC1CC12CCCC1C2

0 1
C 1.5243 2.9352 -0.2886
C 0.0142 3.1172 -0.4339
C -0.4087 3.0755 -1.8996
C -0.7522 2.2144 0.5054
C -1.9380 1.3809 0.0725
C -0.6907 0.6928 0.5651
C 0.1234 -0.1688 -0.3554
C -0.3503 -1.6042 -0.4038
C -0.2170 -2.4373 0.8536
C -1.6623 -2.8189 1.1957
C -2.3692 -2.9527 -0.1577
C -1.6676 -1.9608 -1.0409
C -0.3860 -2.3154 -1.7409
H 1.8630 1.9861 -0.7130
H 2.0607 3.7368 -0.8079
H 1.8228 2.9583 0.7649
H -0.2043 4.1401 -0.0955
H -1.4746 3.3032 -2.0064
H -0.2238 2.1032 -2.3615
H 0.1434 3.8237 -2.4793
H -0.8340 2.7011 1.4772
H -2.1871 1.2898 -0.9773
H -2.8088 1.3667 0.7197
H -0.7177 0.2725 1.5664
H 1.1640 -0.1663 -0.0104
H 0.1316 0.2435 -1.3675
H 0.2557 -1.8999 1.6814
H 0.3803 -3.3345 0.6539
H -1.7268 -3.7304 1.7963
H -2.1265 -2.0049 1.7663
H -2.2587 -3.9673 -0.5559
H -3.4372 -2.7328 -0.0661
H -2.3032 -1.1876 -1.4457
H -0.1332 -1.7586 -2.6369
H -0.0882 -3.3571 -1.7864


--link1--
%nproc=128
%mem=1024GB
%oldchk=00000078.chk
%chk=00000078_1.chk
#p m062x/def2tzvp geom=check em=gd3

CC(C)C1CC1CC12CCCC1C2

0 1


--link1--
%nproc=128
%mem=1024GB
%oldchk=00000078.chk
%chk=00000078_2.chk
#p m062x/def2tzvp scrf=solvent=water geom=check em=gd3

CC(C)C1CC1CC12CCCC1C2

0 1


