%nproc=128
%mem=1024GB
%chk=00000077.chk
#p opt freq b3lyp/6-31g* em=gd3bj

CCC(C)C1C2(CC)C3CCC312

0 1
C 1.2785 -2.2900 -0.5121
C 1.2018 -1.4493 0.7550
C 0.2340 -0.2558 0.6410
C 0.3768 0.6368 1.8792
C -1.2033 -0.7118 0.5057
C -2.2420 0.2555 0.0845
C -3.5856 0.2906 0.7440
C -3.5462 1.1713 1.9829
C -2.0759 0.3211 -1.3876
C -2.9445 -0.3744 -2.3896
C -2.8373 -1.6703 -1.5215
C -1.7704 -0.9737 -0.8102
H 0.3376 -2.8134 -0.7041
H 2.0614 -3.0486 -0.4110
H 1.5177 -1.6709 -1.3823
H 2.2097 -1.0754 0.9742
H 0.9132 -2.0950 1.5936
H 0.5251 0.3427 -0.2320
H -0.2669 1.5195 1.8012
H 0.0932 0.0997 2.7911
H 1.4084 0.9856 1.9940
H -1.4610 -1.4078 1.2995
H -3.9144 -0.7140 1.0334
H -4.3350 0.6931 0.0528
H -3.2371 2.1907 1.7291
H -2.8377 0.7803 2.7206
H -4.5348 1.2180 2.4499
H -1.2859 0.9019 -1.8404
H -3.9572 0.0278 -2.4876
H -2.4966 -0.4598 -3.3861
H -2.5254 -2.5568 -2.0820
H -3.7430 -1.9222 -0.9621


--link1--
%nproc=128
%mem=1024GB
%oldchk=00000077.chk
%chk=00000077_1.chk
#p m062x/def2tzvp geom=check em=gd3

CCC(C)C1C2(CC)C3CCC312

0 1


--link1--
%nproc=128
%mem=1024GB
%oldchk=00000077.chk
%chk=00000077_2.chk
#p m062x/def2tzvp scrf=solvent=water geom=check em=gd3

CCC(C)C1C2(CC)C3CCC312

0 1


