%nproc=128
%mem=1024GB
%chk=00000020.chk
#p opt freq b3lyp/6-31g* em=gd3bj

CC(CC1CC1)C1CC(C)C2CC12

0 1
C 0.3222 0.3034 -2.5739
C -0.8229 0.1654 -1.5587
C -1.6989 -1.0594 -1.9245
C -1.0136 -2.3878 -1.7642
C -1.1642 -3.1938 -0.4993
C -1.8433 -3.6468 -1.7602
C -0.3123 0.1445 -0.0892
C 0.5812 1.3609 0.2824
C -0.3938 2.4252 0.8206
C 0.2689 3.4018 1.7764
C -1.4910 1.6281 1.4748
C -1.2110 0.4591 2.3864
C -1.4564 0.2440 0.9132
H 0.7418 1.3136 -2.5642
H 1.1323 -0.4028 -2.3661
H -0.0318 0.1257 -3.5953
H -1.4662 1.0474 -1.6860
H -2.6287 -1.0405 -1.3448
H -2.0134 -0.9673 -2.9724
H -0.0707 -2.4405 -2.2966
H -0.3040 -3.7557 -0.1532
H -1.7868 -2.8066 0.2989
H -1.4446 -4.5189 -2.2663
H -2.9228 -3.5608 -1.8131
H 0.2604 -0.7728 0.0876
H 1.2750 1.0542 1.0770
H 1.2000 1.7460 -0.5300
H -0.8217 2.9796 -0.0240
H 0.6937 2.8891 2.6462
H -0.4593 4.1299 2.1492
H 1.0744 3.9487 1.2759
H -2.4352 2.1482 1.5557
H -1.9933 0.1616 3.0766
H -0.2119 0.3189 2.7807
H -2.3763 -0.2467 0.6353


--link1--
%nproc=128
%mem=1024GB
%oldchk=00000020.chk
%chk=00000020_1.chk
#p m062x/def2tzvp geom=check em=gd3

CC(CC1CC1)C1CC(C)C2CC12

0 1


--link1--
%nproc=128
%mem=1024GB
%oldchk=00000020.chk
%chk=00000020_2.chk
#p m062x/def2tzvp scrf=solvent=water geom=check em=gd3

CC(CC1CC1)C1CC(C)C2CC12

0 1


