%nproc=128
%mem=1024GB
%chk=00000065.chk
#p opt freq b3lyp/6-31g* em=gd3bj

CC(C)C1C2CC(CC3CC3)C1C2

0 1
C -2.2544 2.0631 -2.2214
C -2.1225 0.9785 -1.1483
C -3.2697 1.0913 -0.1570
C -0.7049 1.0342 -0.5509
C -0.0879 2.2140 0.2892
C 1.4081 1.8713 0.3750
C 1.3057 0.3511 0.6388
C 1.9934 -0.1368 1.9135
C 3.4864 -0.1806 1.7581
C 4.3594 -0.2872 2.9815
C 4.3440 0.9841 2.1795
C -0.2292 0.2356 0.7236
C -0.6729 1.4938 1.5328
H -1.4752 1.9574 -2.9839
H -3.2254 2.0003 -2.7239
H -2.1597 3.0644 -1.7878
H -2.2283 0.0055 -1.6466
H -4.2297 0.9528 -0.6675
H -3.2038 0.3214 0.6181
H -3.2997 2.0761 0.3199
H -0.0719 0.7964 -1.4252
H -0.3864 3.2395 0.0802
H 1.9269 2.0824 -0.5657
H 1.8998 2.4223 1.1823
H 1.6823 -0.2133 -0.2240
H 1.7146 0.4786 2.7766
H 1.6455 -1.1527 2.1386
H 3.7932 -0.7542 0.8896
H 3.8907 -0.2755 3.9590
H 5.2418 -0.9144 2.9220
H 3.8703 1.8525 2.6228
H 5.2141 1.2157 1.5757
H -0.6847 -0.7304 0.9369
H -0.1650 1.6823 2.4844
H -1.7365 1.6201 1.7295


--link1--
%nproc=128
%mem=1024GB
%oldchk=00000065.chk
%chk=00000065_1.chk
#p m062x/def2tzvp geom=check em=gd3

CC(C)C1C2CC(CC3CC3)C1C2

0 1


--link1--
%nproc=128
%mem=1024GB
%oldchk=00000065.chk
%chk=00000065_2.chk
#p m062x/def2tzvp scrf=solvent=water geom=check em=gd3

CC(C)C1C2CC(CC3CC3)C1C2

0 1


