%nproc=128
%mem=1024GB
%chk=00000035.chk
#p opt freq b3lyp/6-31g* em=gd3bj

CCCC12CC1(CC)C1CCC12

0 1
C 1.8718 0.7718 3.0795
C 1.5434 0.1310 1.7390
C 0.7015 -1.1330 1.9177
C 0.2041 -1.7561 0.6401
C -1.1841 -2.3587 0.6386
C -0.8631 -1.1798 -0.2464
C -1.5510 0.1297 0.0107
C -2.8088 0.2536 -0.8354
C 0.0485 -1.2725 -1.4272
C 0.0953 -2.4953 -2.3528
C 1.1192 -3.1660 -1.4255
C 1.1254 -1.9217 -0.5234
H 0.9596 1.0708 3.6056
H 2.4277 0.0793 3.7196
H 2.4861 1.6655 2.9317
H 2.4832 -0.1069 1.2296
H 1.0189 0.8608 1.1151
H -0.1484 -0.9044 2.5731
H 1.2987 -1.8855 2.4478
H -1.3327 -3.3284 0.1770
H -1.8262 -2.2029 1.4990
H -0.8811 0.9650 -0.2219
H -1.8250 0.2271 1.0676
H -2.5717 0.2019 -1.9031
H -3.5139 -0.5531 -0.6095
H -3.3064 1.2087 -0.6412
H 0.3535 -0.3294 -1.8922
H 0.4809 -2.2773 -3.3542
H -0.8532 -3.0319 -2.4533
H 2.0819 -3.3758 -1.9033
H 0.7668 -4.0826 -0.9419
H 2.0793 -1.3884 -0.5138


--link1--
%nproc=128
%mem=1024GB
%oldchk=00000035.chk
%chk=00000035_1.chk
#p m062x/def2tzvp geom=check em=gd3

CCCC12CC1(CC)C1CCC12

0 1


--link1--
%nproc=128
%mem=1024GB
%oldchk=00000035.chk
%chk=00000035_2.chk
#p m062x/def2tzvp scrf=solvent=water geom=check em=gd3

CCCC12CC1(CC)C1CCC12

0 1


