%nproc=128
%mem=1024GB
%chk=00000116.chk
#p opt freq b3lyp/6-31g* em=gd3bj

CCC12CC1C(C)C2C(C)C1CC1

0 1
C -0.7219 -1.4225 -2.0821
C -0.8167 -2.0024 -0.6782
C -0.6562 -0.9290 0.3584
C -1.9056 -0.1648 0.7483
C -1.2024 -1.0308 1.7455
C 0.1277 -0.7219 2.3448
C 0.1814 0.4881 3.2636
C 0.6990 -0.5167 0.8953
C 1.9941 -1.2458 0.4722
C 2.1482 -2.6281 1.1117
C 3.1829 -0.3259 0.6955
C 3.7729 -0.0820 2.0624
C 4.5737 -0.8159 1.0207
H -0.8397 -2.2134 -2.8292
H -1.5041 -0.6749 -2.2511
H 0.2443 -0.9361 -2.2477
H -1.7931 -2.4911 -0.5693
H -0.0744 -2.7947 -0.5674
H -1.8347 0.9121 0.8521
H -2.8685 -0.5000 0.3795
H -1.6203 -1.9719 2.0742
H 0.5171 -1.5983 2.8766
H -0.3970 0.3048 4.1750
H 1.2131 0.7001 3.5601
H -0.2209 1.3853 2.7822
H 0.8048 0.5505 0.6333
H 1.9550 -1.3986 -0.6135
H 1.2341 -3.2230 1.0466
H 2.4155 -2.5699 2.1711
H 2.9403 -3.1948 0.6103
H 3.1253 0.5343 0.0313
H 3.4075 -0.6459 2.9118
H 4.0697 0.9316 2.3096
H 4.7594 -1.8707 1.1787
H 5.4101 -0.2950 0.5663


--link1--
%nproc=128
%mem=1024GB
%oldchk=00000116.chk
%chk=00000116_1.chk
#p m062x/def2tzvp geom=check em=gd3

CCC12CC1C(C)C2C(C)C1CC1

0 1


--link1--
%nproc=128
%mem=1024GB
%oldchk=00000116.chk
%chk=00000116_2.chk
#p m062x/def2tzvp scrf=solvent=water geom=check em=gd3

CCC12CC1C(C)C2C(C)C1CC1

0 1


