%nproc=128
%mem=1024GB
%chk=00000011.chk
#p opt freq b3lyp/6-31g* em=gd3bj

CC(C)C1CC2C(CCC3CC3)C12

0 1
C 0.0459 -1.5387 -4.2753
C -0.8344 -1.5651 -3.0242
C -2.3083 -1.4831 -3.4201
C -0.3911 -0.4439 -2.0712
C -0.7233 1.0413 -2.3997
C -1.4435 1.1404 -1.1082
C -0.8536 0.8004 0.2290
C -1.6927 0.9097 1.4684
C -1.2901 -0.1024 2.5440
C 0.0529 0.1945 3.1485
C 1.2997 -0.4689 2.6228
C 0.7496 -0.8638 3.9645
C -1.1215 -0.2813 -0.7786
H -0.0676 -0.5973 -4.8239
H -0.2118 -2.3604 -4.9517
H 1.1036 -1.6411 -4.0098
H -0.6726 -2.5273 -2.5215
H -2.5340 -0.5668 -3.9741
H -2.5781 -2.3292 -4.0619
H -2.9656 -1.5144 -2.5465
H 0.6807 -0.5741 -1.8501
H 0.1581 1.6880 -2.4741
H -1.3444 1.2157 -3.2827
H -2.4842 1.4128 -1.2198
H 0.1755 1.0931 0.4056
H -2.7494 0.7494 1.2202
H -1.6109 1.9302 1.8614
H -1.3143 -1.1182 2.1307
H -2.0352 -0.0685 3.3479
H 0.1275 1.2162 3.5055
H 1.2074 -1.1772 1.8071
H 2.2118 0.1165 2.5982
H 1.2918 -0.5476 4.8484
H 0.2883 -1.8407 4.0545
H -1.9282 -0.9835 -0.6253


--link1--
%nproc=128
%mem=1024GB
%oldchk=00000011.chk
%chk=00000011_1.chk
#p m062x/def2tzvp geom=check em=gd3

CC(C)C1CC2C(CCC3CC3)C12

0 1


--link1--
%nproc=128
%mem=1024GB
%oldchk=00000011.chk
%chk=00000011_2.chk
#p m062x/def2tzvp scrf=solvent=water geom=check em=gd3

CC(C)C1CC2C(CCC3CC3)C12

0 1


