%nproc=128
%mem=1024GB
%chk=00000096.chk
#p opt freq b3lyp/6-31g* em=gd3bj

CCC(C)C1C2CC21CCC1CC1

0 1
C 3.0641 -1.0640 1.3725
C 2.3041 0.0344 2.1075
C 0.8981 -0.3390 2.5987
C 0.9237 -1.6413 3.4133
C -0.2383 -0.3902 1.5996
C -0.1785 -0.8623 0.1943
C 0.4528 0.2700 -0.5189
C -0.5006 0.6322 0.5506
C -1.8335 1.2785 0.3376
C -2.9081 0.5023 -0.4250
C -2.6996 0.4949 -1.9149
C -3.7645 -0.1099 -2.7966
C -2.4320 -0.7860 -2.6652
H 4.0026 -0.6633 0.9755
H 3.3228 -1.8855 2.0479
H 2.4963 -1.4793 0.5373
H 2.9078 0.3050 2.9848
H 2.2680 0.9445 1.5012
H 0.6151 0.4560 3.3037
H 1.0757 -2.5139 2.7691
H 1.7176 -1.6203 4.1672
H -0.0269 -1.7894 3.9381
H -1.1314 -0.7060 2.1442
H -0.9689 -1.4495 -0.2399
H 0.1614 0.4370 -1.5522
H 1.5065 0.4727 -0.3967
H -1.6660 2.2474 -0.1491
H -2.2369 1.5154 1.3308
H -3.0173 -0.5133 -0.0292
H -3.8662 1.0055 -0.2400
H -2.2469 1.4111 -2.2794
H -4.6208 -0.5835 -2.3296
H -3.9914 0.3882 -3.7326
H -1.7532 -0.7435 -3.5097
H -2.4006 -1.7235 -2.1229


--link1--
%nproc=128
%mem=1024GB
%oldchk=00000096.chk
%chk=00000096_1.chk
#p m062x/def2tzvp geom=check em=gd3

CCC(C)C1C2CC21CCC1CC1

0 1


--link1--
%nproc=128
%mem=1024GB
%oldchk=00000096.chk
%chk=00000096_2.chk
#p m062x/def2tzvp scrf=solvent=water geom=check em=gd3

CCC(C)C1C2CC21CCC1CC1

0 1


