%nproc=128
%mem=1024GB
%chk=00000084.chk
#p opt freq b3lyp/6-31g* em=gd3bj

CCC1(CC)C2C3CC(C(C)C)C321

0 1
C -0.1311 -2.0223 2.4665
C 0.5074 -0.6621 2.2199
C 1.2571 -0.4877 0.8920
C 2.2512 0.6844 0.9502
C 1.6340 2.0519 1.1806
C 1.8661 -1.6921 0.2287
C 1.8890 -1.2525 -1.1693
C 1.3156 -0.1225 -1.9660
C -0.0498 -0.7019 -1.5531
C -1.3435 0.1179 -1.5409
C -1.2309 1.4524 -0.8255
C -2.4768 -0.7117 -0.9325
C 0.6010 -1.1561 -0.3067
H -0.8421 -2.2880 1.6788
H 0.6238 -2.8117 2.5299
H -0.6756 -2.0112 3.4164
H 1.1940 -0.4600 3.0511
H -0.2825 0.0963 2.2682
H 2.9373 0.4836 1.7847
H 2.9004 0.7362 0.0700
H 0.9575 2.0633 2.0392
H 2.4229 2.7878 1.3697
H 1.0847 2.3916 0.3026
H 1.8133 -2.7150 0.5552
H 2.0442 -2.0791 -1.8616
H 1.5148 -0.1655 -3.0425
H 1.5328 0.8961 -1.6370
H -0.2889 -1.5849 -2.1775
H -1.6134 0.3299 -2.5839
H -0.9946 1.3231 0.2332
H -0.4644 2.0808 -1.2868
H -2.1769 2.0021 -0.8843
H -3.4297 -0.1757 -0.9970
H -2.2865 -0.9357 0.1222
H -2.5919 -1.6650 -1.4593


--link1--
%nproc=128
%mem=1024GB
%oldchk=00000084.chk
%chk=00000084_1.chk
#p m062x/def2tzvp geom=check em=gd3

CCC1(CC)C2C3CC(C(C)C)C321

0 1


--link1--
%nproc=128
%mem=1024GB
%oldchk=00000084.chk
%chk=00000084_2.chk
#p m062x/def2tzvp scrf=solvent=water geom=check em=gd3

CCC1(CC)C2C3CC(C(C)C)C321

0 1


