%nproc=128
%mem=1024GB
%chk=00000012.chk
#p opt freq b3lyp/6-31g* em=gd3bj

CC(C)C1C2CCCC21CC1CC1

0 1
C -2.2929 -3.1365 1.1506
C -1.8955 -1.6840 1.4246
C -1.9381 -1.4018 2.9261
C -0.5169 -1.4120 0.8769
C -0.3622 -1.0180 -0.5708
C 0.8806 -1.3760 -1.3348
C 1.8743 -0.2632 -0.9850
C 1.5068 0.1660 0.4405
C 0.0012 -0.0236 0.5017
C -0.8328 1.2221 0.7082
C -0.7238 2.2075 -0.4238
C -1.8032 3.2410 -0.6242
C -1.6440 2.1211 -1.6143
H -2.2829 -3.3455 0.0754
H -1.6003 -3.8374 1.6299
H -3.3008 -3.3429 1.5258
H -2.6376 -1.0472 0.9298
H -1.2275 -2.0341 3.4700
H -2.9386 -1.5883 3.3301
H -1.6785 -0.3593 3.1373
H 0.2074 -2.1089 1.2921
H -1.2337 -0.8531 -1.1870
H 0.6986 -1.4150 -2.4131
H 1.2604 -2.3523 -1.0140
H 2.9154 -0.5863 -1.0724
H 1.7252 0.5818 -1.6685
H 1.8236 1.1945 0.6385
H 2.0013 -0.4801 1.1753
H -0.4984 1.7126 1.6305
H -1.8862 0.9717 0.8659
H 0.2952 2.5365 -0.5913
H -2.6704 3.2228 0.0261
H -1.5015 4.2361 -0.9309
H -2.4059 1.3503 -1.6304
H -1.2306 2.3552 -2.5886


--link1--
%nproc=128
%mem=1024GB
%oldchk=00000012.chk
%chk=00000012_1.chk
#p m062x/def2tzvp geom=check em=gd3

CC(C)C1C2CCCC21CC1CC1

0 1


--link1--
%nproc=128
%mem=1024GB
%oldchk=00000012.chk
%chk=00000012_2.chk
#p m062x/def2tzvp scrf=solvent=water geom=check em=gd3

CC(C)C1C2CCCC21CC1CC1

0 1


