%nproc=128
%mem=1024GB
%chk=00000030.chk
#p opt freq b3lyp/6-31g* em=gd3bj

CC(C)C1CCCC1CC1C2CC12

0 1
C 0.6447 -0.8893 1.9820
C -0.4191 0.1960 1.7824
C -1.1720 0.3922 3.1046
C -1.3750 -0.1716 0.6298
C -2.5680 0.7837 0.4578
C -3.0418 0.6035 -0.9851
C -2.0673 -0.3791 -1.6260
C -0.7780 -0.2570 -0.7974
C 0.0425 0.9685 -1.2617
C 1.5235 0.8124 -1.0333
C 2.5143 1.1988 -2.0788
C 2.2536 0.1348 -3.0828
C 2.3369 -0.2702 -1.6590
H 1.3455 -0.6021 2.7734
H 0.1868 -1.8423 2.2694
H 1.2284 -1.0622 1.0750
H 0.0845 1.1421 1.5560
H -0.4730 0.5972 3.9228
H -1.7493 -0.5003 3.3691
H -1.8611 1.2406 3.0491
H -1.7960 -1.1627 0.8620
H -2.2738 1.8265 0.6239
H -3.3710 0.5518 1.1657
H -3.0191 1.5664 -1.5079
H -4.0692 0.2285 -1.0320
H -2.4663 -1.3975 -1.5342
H -1.9241 -0.1843 -2.6933
H -0.1894 -1.1737 -0.9156
H -0.1449 1.1568 -2.3250
H -0.2891 1.8795 -0.7498
H 1.7784 1.0838 -0.0137
H 3.4960 1.5908 -1.8593
H 3.0694 -0.1516 -3.7396
H 1.2968 0.0917 -3.5902
H 3.2185 -0.6961 -1.2046


--link1--
%nproc=128
%mem=1024GB
%oldchk=00000030.chk
%chk=00000030_1.chk
#p m062x/def2tzvp geom=check em=gd3

CC(C)C1CCCC1CC1C2CC12

0 1


--link1--
%nproc=128
%mem=1024GB
%oldchk=00000030.chk
%chk=00000030_2.chk
#p m062x/def2tzvp scrf=solvent=water geom=check em=gd3

CC(C)C1CCCC1CC1C2CC12

0 1


