%nproc=128
%mem=1024GB
%chk=00000074.chk
#p opt freq b3lyp/6-31g* em=gd3bj

CCCC12CC1C1(CC)CCC12

0 1
C -0.6978 -3.1407 -3.0407
C 0.2360 -1.9391 -3.0317
C -0.3031 -0.7734 -2.2015
C -0.3800 -1.1034 -0.7373
C -1.7286 -1.3418 -0.1033
C -0.9295 -0.1249 0.2516
C 0.3617 -0.1131 0.9978
C 0.3004 -0.4268 2.4852
C -0.2548 0.7576 3.2602
C 1.5324 0.7822 0.5126
C 2.1661 -0.4389 -0.1678
C 0.8780 -1.2427 0.0563
H -0.8035 -3.5721 -2.0406
H -0.3019 -3.9197 -3.6999
H -1.6922 -2.8626 -3.4041
H 0.3775 -1.5985 -4.0642
H 1.2191 -2.2499 -2.6601
H 0.3458 0.0980 -2.3500
H -1.2898 -0.4829 -2.5835
H -1.8150 -2.1347 0.6312
H -2.6237 -1.2042 -0.6989
H -1.2383 0.8554 -0.0844
H 1.2990 -0.6715 2.8663
H -0.3304 -1.3043 2.6703
H -0.2899 0.5285 4.3298
H -1.2695 1.0041 2.9315
H 0.3672 1.6477 3.1225
H 2.1506 1.2300 1.2968
H 1.2330 1.5742 -0.1831
H 3.0252 -0.8436 0.3795
H 2.4633 -0.2914 -1.2096
H 1.0231 -2.2288 0.5096


--link1--
%nproc=128
%mem=1024GB
%oldchk=00000074.chk
%chk=00000074_1.chk
#p m062x/def2tzvp geom=check em=gd3

CCCC12CC1C1(CC)CCC12

0 1


--link1--
%nproc=128
%mem=1024GB
%oldchk=00000074.chk
%chk=00000074_2.chk
#p m062x/def2tzvp scrf=solvent=water geom=check em=gd3

CCCC12CC1C1(CC)CCC12

0 1


