%nproc=128
%mem=1024GB
%chk=00000104.chk
#p opt freq b3lyp/6-31g* em=gd3bj

CC(C)C1CC(C(C)C2CC2)C1C

0 1
C -0.3028 0.4810 -4.2007
C 0.7834 0.1712 -3.1677
C 0.8268 -1.3286 -2.8906
C 0.5523 1.0301 -1.9104
C -0.6185 0.7196 -0.9430
C 0.3918 0.0757 0.0423
C 0.1458 0.2873 1.5456
C 1.3030 -0.3298 2.3348
C -1.2239 -0.2383 1.9260
C -1.5261 -0.9508 3.2230
C -1.5398 -1.7141 1.9271
C 1.5237 0.8700 -0.6976
C 2.0006 2.2004 -0.1250
H -0.1274 -0.0724 -5.1292
H -1.2975 0.2136 -3.8284
H -0.3168 1.5487 -4.4446
H 1.7487 0.4605 -3.6028
H 1.6356 -1.5842 -2.1997
H 1.0038 -1.8856 -3.8173
H -0.1129 -1.6908 -2.4617
H 0.5073 2.0776 -2.2485
H -1.3978 0.0494 -1.3161
H -1.1035 1.6255 -0.5588
H 0.4854 -1.0040 -0.1505
H 0.1356 1.3621 1.7643
H 2.2673 0.0680 2.0044
H 1.2109 -0.1121 3.4036
H 1.3462 -1.4169 2.2113
H -2.0026 0.4236 1.5537
H -2.4794 -0.7459 3.6992
H -0.7342 -1.1719 3.9270
H -0.7440 -2.4274 1.7492
H -2.5002 -2.0244 1.5301
H 2.4010 0.2454 -0.9091
H 2.5818 2.0477 0.7888
H 2.6477 2.7132 -0.8444
H 1.1645 2.8670 0.1095


--link1--
%nproc=128
%mem=1024GB
%oldchk=00000104.chk
%chk=00000104_1.chk
#p m062x/def2tzvp geom=check em=gd3

CC(C)C1CC(C(C)C2CC2)C1C

0 1


--link1--
%nproc=128
%mem=1024GB
%oldchk=00000104.chk
%chk=00000104_2.chk
#p m062x/def2tzvp scrf=solvent=water geom=check em=gd3

CC(C)C1CC(C(C)C2CC2)C1C

0 1


