%nproc=128
%mem=1024GB
%chk=00000105.chk
#p opt freq b3lyp/6-31g* em=gd3bj

CC(C)C1CC1C(C)CC12CC1C2

0 1
C 1.4291 -2.3943 -1.9316
C 0.6457 -2.8624 -0.7117
C -0.8275 -2.4782 -0.7904
C 1.2415 -2.5914 0.6459
C 2.6334 -2.0316 0.8266
C 1.4649 -1.3094 1.4565
C 1.2510 0.1608 1.1827
C 1.2358 0.6317 -0.2618
C 0.0413 0.7142 1.9679
C -1.2595 0.1362 1.5206
C -2.1329 -0.7757 2.3129
C -2.5168 0.6586 2.2290
C -2.3264 0.8542 0.7667
H 0.9770 -2.7917 -2.8477
H 1.4503 -1.3109 -2.0343
H 2.4626 -2.7542 -1.9013
H 0.6573 -3.9600 -0.7956
H -1.2837 -2.8809 -1.7014
H -0.9707 -1.3980 -0.8051
H -1.3816 -2.8801 0.0643
H 0.9884 -3.4443 1.2814
H 3.1430 -1.5621 -0.0049
H 3.3104 -2.5687 1.4837
H 1.3784 -1.4591 2.5358
H 2.1259 0.6535 1.6331
H 1.1622 1.7247 -0.3048
H 0.3892 0.2363 -0.8222
H 2.1605 0.3611 -0.7782
H 0.0198 1.8073 1.8673
H 0.1849 0.5104 3.0373
H -1.7626 -1.1512 3.2608
H -2.7370 -1.5073 1.7854
H -2.3170 1.3998 2.9857
H -2.9475 0.2876 0.0797
H -2.1213 1.8574 0.4088


--link1--
%nproc=128
%mem=1024GB
%oldchk=00000105.chk
%chk=00000105_1.chk
#p m062x/def2tzvp geom=check em=gd3

CC(C)C1CC1C(C)CC12CC1C2

0 1


--link1--
%nproc=128
%mem=1024GB
%oldchk=00000105.chk
%chk=00000105_2.chk
#p m062x/def2tzvp scrf=solvent=water geom=check em=gd3

CC(C)C1CC1C(C)CC12CC1C2

0 1


