%nproc=128
%mem=1024GB
%chk=00000017.chk
#p opt freq b3lyp/6-31g* em=gd3bj

CC(C)C1CCCC1CC1C2CC12

0 1
C 0.7175 3.3594 0.9290
C 0.3630 2.1165 0.0999
C -0.3978 2.6064 -1.1424
C -0.4610 1.0481 0.8890
C -0.0891 0.9290 2.3798
C 1.1745 0.0760 2.4040
C 1.1112 -0.7855 1.1434
C -0.2219 -0.4289 0.4667
C -0.2330 -0.7996 -1.0179
C -1.6274 -0.7781 -1.5869
C -2.4851 -1.9946 -1.6455
C -1.7529 -2.7843 -2.6669
C -1.9419 -1.3372 -2.9310
H 1.4288 3.1191 1.7249
H 1.1972 4.1225 0.3055
H -0.1759 3.8066 1.3777
H 1.3088 1.6769 -0.2387
H 0.1775 3.3743 -1.6719
H -1.3631 3.0447 -0.8663
H -0.5837 1.8078 -1.8605
H -1.5273 1.2939 0.8124
H 0.0316 1.8777 2.9068
H -0.8900 0.3919 2.9065
H 2.0698 0.7070 2.3803
H 1.2243 -0.5337 3.3117
H 1.1584 -1.8525 1.3860
H 1.9648 -0.5595 0.4937
H -1.0008 -1.0348 0.9560
H 0.4161 -0.1352 -1.5964
H 0.2083 -1.7974 -1.1190
H -2.1279 0.1530 -1.3375
H -3.5619 -1.9679 -1.5703
H -0.7617 -3.1632 -2.4483
H -2.3237 -3.4867 -3.2672
H -2.7156 -0.9438 -3.5733


--link1--
%nproc=128
%mem=1024GB
%oldchk=00000017.chk
%chk=00000017_1.chk
#p m062x/def2tzvp geom=check em=gd3

CC(C)C1CCCC1CC1C2CC12

0 1


--link1--
%nproc=128
%mem=1024GB
%oldchk=00000017.chk
%chk=00000017_2.chk
#p m062x/def2tzvp scrf=solvent=water geom=check em=gd3

CC(C)C1CCCC1CC1C2CC12

0 1


