%nproc=128
%mem=1024GB
%chk=00000034.chk
#p opt freq b3lyp/6-31g* em=gd3bj

CC(C)C1C(CC2CCC2)C2CC21

0 1
C 0.0216 0.6119 -2.0549
C 1.0399 1.4016 -1.2422
C 0.8755 2.8946 -1.5450
C 0.8824 1.1521 0.2755
C 1.3863 -0.2162 0.8943
C 0.5514 -0.9482 1.9529
C -0.4845 -1.8434 1.2920
C -0.2151 -2.7419 0.0550
C -1.7049 -2.5646 -0.3088
C -1.7024 -1.2698 0.5314
C 2.5162 0.5494 1.5432
C 3.3950 1.6008 0.9429
C 1.9261 1.8405 1.0974
H 0.1662 0.7833 -3.1273
H 0.1241 -0.4604 -1.8804
H -1.0034 0.9064 -1.8085
H 2.0395 1.0917 -1.5700
H -0.0990 3.2631 -1.2061
H 1.6464 3.4893 -1.0444
H 0.9581 3.0865 -2.6201
H -0.1265 1.4271 0.6142
H 1.8295 -0.8966 0.1565
H 0.0662 -0.2409 2.6356
H 1.2149 -1.5798 2.5574
H -0.8609 -2.4780 2.1156
H 0.0927 -3.7670 0.2799
H 0.4626 -2.3369 -0.6998
H -2.3522 -3.3502 0.0976
H -1.9220 -2.4387 -1.3725
H -2.5980 -1.1059 1.1377
H -1.5110 -0.3662 -0.0448
H 2.6050 0.3556 2.6057
H 4.0699 2.1375 1.6001
H 3.8004 1.4264 -0.0462
H 1.5265 2.5051 1.8505


--link1--
%nproc=128
%mem=1024GB
%oldchk=00000034.chk
%chk=00000034_1.chk
#p m062x/def2tzvp geom=check em=gd3

CC(C)C1C(CC2CCC2)C2CC21

0 1


--link1--
%nproc=128
%mem=1024GB
%oldchk=00000034.chk
%chk=00000034_2.chk
#p m062x/def2tzvp scrf=solvent=water geom=check em=gd3

CC(C)C1C(CC2CCC2)C2CC21

0 1


