%nproc=128
%mem=1024GB
%chk=00000070.chk
#p opt freq b3lyp/6-31g* em=gd3bj

CCC1(C)CC1C(C)C1C2CC21

0 1
C 3.6191 -0.8849 0.7781
C 3.1725 0.4185 0.1347
C 2.0658 1.1256 0.8987
C 2.4240 1.5014 2.3184
C 1.2536 2.1348 0.1118
C 0.5848 0.8766 0.6052
C 0.0648 -0.1352 -0.3895
C -1.2722 0.3163 -0.9858
C 0.0240 -1.5521 0.1483
C -0.0951 -1.8972 1.5969
C -1.5014 -1.5096 1.8567
C -1.2175 -2.2475 0.6031
H 4.3676 -1.3778 0.1495
H 2.7829 -1.5739 0.9148
H 4.0737 -0.7106 1.7582
H 4.0357 1.0926 0.0688
H 2.8724 0.2162 -0.8989
H 1.6813 2.1734 2.7627
H 2.4769 0.6090 2.9500
H 3.3930 2.0101 2.3497
H 0.9794 3.0711 0.5867
H 1.4431 2.2395 -0.9515
H -0.1065 1.0031 1.4332
H 0.7549 -0.1619 -1.2424
H -2.0409 0.4580 -0.2205
H -1.1579 1.2743 -1.5050
H -1.6459 -0.4162 -1.7092
H 0.7188 -2.1631 -0.4255
H 0.3774 -2.7605 2.0409
H -1.7873 -0.4668 1.8158
H -2.0330 -2.0361 2.6438
H -1.3778 -3.3091 0.4881


--link1--
%nproc=128
%mem=1024GB
%oldchk=00000070.chk
%chk=00000070_1.chk
#p m062x/def2tzvp geom=check em=gd3

CCC1(C)CC1C(C)C1C2CC21

0 1


--link1--
%nproc=128
%mem=1024GB
%oldchk=00000070.chk
%chk=00000070_2.chk
#p m062x/def2tzvp scrf=solvent=water geom=check em=gd3

CCC1(C)CC1C(C)C1C2CC21

0 1


