%nproc=128
%mem=1024GB
%chk=00000068.chk
#p opt freq b3lyp/6-31g* em=gd3bj

CC(CC12CCC1C(C)C2)C1CC1

0 1
C 1.1875 -0.0430 -3.0830
C 1.1680 1.0955 -2.0609
C -0.2405 1.6488 -1.7882
C -1.1769 0.8730 -0.8748
C -2.5713 1.5687 -0.7300
C -2.2027 1.9307 0.7199
C -1.0633 0.9072 0.6677
C -1.5479 -0.5605 0.7384
C -0.7111 -1.4840 1.6053
C -1.3270 -0.6707 -0.7918
C 1.9366 0.7331 -0.8186
C 2.5364 1.8098 0.0499
C 3.4321 0.9282 -0.7730
H 0.6284 0.2287 -3.9843
H 0.7743 -0.9739 -2.6930
H 2.2181 -0.2607 -3.3863
H 1.7043 1.9209 -2.5531
H -0.1217 2.6600 -1.3741
H -0.7362 1.7896 -2.7582
H -3.4404 0.9066 -0.8212
H -2.7473 2.4374 -1.3732
H -1.8478 2.9615 0.8338
H -2.9808 1.7485 1.4663
H -0.1086 1.1654 1.1233
H -2.6073 -0.6610 1.0131
H -0.8337 -1.2318 2.6635
H 0.3541 -1.4154 1.3637
H -1.0225 -2.5246 1.4695
H -0.4343 -1.2466 -1.0419
H -2.1648 -1.0940 -1.3551
H 1.5545 -0.1558 -0.3318
H 2.5232 1.6599 1.1236
H 2.4261 2.8449 -0.2526
H 4.0243 0.1817 -0.2558
H 3.9291 1.3689 -1.6298


--link1--
%nproc=128
%mem=1024GB
%oldchk=00000068.chk
%chk=00000068_1.chk
#p m062x/def2tzvp geom=check em=gd3

CC(CC12CCC1C(C)C2)C1CC1

0 1


--link1--
%nproc=128
%mem=1024GB
%oldchk=00000068.chk
%chk=00000068_2.chk
#p m062x/def2tzvp scrf=solvent=water geom=check em=gd3

CC(CC12CCC1C(C)C2)C1CC1

0 1


