%nproc=128
%mem=1024GB
%chk=00000018.chk
#p opt freq b3lyp/6-31g* em=gd3bj

CCC(C(C)C1CCC1)C1C2CC21

0 1
C 1.5153 0.9183 -2.4772
C 1.2512 1.7706 -1.2425
C 0.4945 1.0936 -0.0781
C 1.2495 -0.1897 0.4100
C 0.7137 -1.4978 -0.1887
C 1.3556 -0.3597 1.9469
C 0.1259 -0.5014 2.8839
C 0.3518 0.9482 3.3429
C 1.7995 0.8403 2.8273
C -1.0026 0.8844 -0.2260
C -1.9703 1.9052 -0.7063
C -1.8122 1.8436 -2.1722
C -1.7602 0.5509 -1.4593
H 1.9524 1.5389 -3.2667
H 0.6067 0.4636 -2.8764
H 2.2318 0.1193 -2.2647
H 2.2308 2.0947 -0.8636
H 0.7491 2.7003 -1.5272
H 0.5689 1.8409 0.7194
H 2.2916 -0.0964 0.0731
H -0.2747 -1.7531 0.2066
H 1.3796 -2.3318 0.0607
H 0.6442 -1.4492 -1.2782
H 2.0437 -1.2069 2.1056
H 0.2831 -1.2330 3.6867
H -0.8399 -0.7153 2.4248
H 0.2489 1.1214 4.4177
H -0.2639 1.6824 2.8137
H 2.1877 1.7201 2.3082
H 2.5162 0.5604 3.6091
H -1.3537 0.3771 0.6701
H -2.9432 2.0200 -0.2476
H -0.9318 2.2470 -2.6476
H -2.6913 2.0449 -2.7801
H -2.6109 -0.1164 -1.4347


--link1--
%nproc=128
%mem=1024GB
%oldchk=00000018.chk
%chk=00000018_1.chk
#p m062x/def2tzvp geom=check em=gd3

CCC(C(C)C1CCC1)C1C2CC21

0 1


--link1--
%nproc=128
%mem=1024GB
%oldchk=00000018.chk
%chk=00000018_2.chk
#p m062x/def2tzvp scrf=solvent=water geom=check em=gd3

CCC(C(C)C1CCC1)C1C2CC21

0 1


