%nproc=128
%mem=1024GB
%chk=00000005.chk
#p opt freq b3lyp/6-31g* em=gd3bj

CCC12CC(C)C3CC1C32CC

0 1
C -1.8644 1.7133 0.8916
C -0.6440 0.8379 1.1233
C 0.1601 0.5231 -0.1098
C 1.6753 0.4856 0.0357
C 2.1864 -0.5214 -1.0454
C 2.6518 -1.8287 -0.4099
C 0.9614 -0.7924 -1.9551
C 0.4588 0.4709 -2.7488
C -0.3245 0.8433 -1.5280
C -0.2248 -0.5655 -1.0808
C -1.3735 -1.4995 -0.9489
C -2.0124 -1.8671 -2.2790
H -2.3521 1.9395 1.8453
H -2.6008 1.2188 0.2513
H -1.5847 2.6617 0.4216
H 0.0013 1.3605 1.8404
H -0.9462 -0.0952 1.6127
H 1.9840 0.1854 1.0429
H 2.0817 1.4847 -0.1591
H 3.0147 -0.0871 -1.6164
H 3.5023 -1.6538 0.2568
H 1.8531 -2.3017 0.1718
H 2.9649 -2.5414 -1.1802
H 1.0231 -1.6997 -2.5615
H -0.1585 0.2412 -3.6250
H 1.2389 1.1785 -3.0446
H -1.2958 1.2570 -1.7490
H -1.0258 -2.4144 -0.4555
H -2.1486 -1.0740 -0.3033
H -2.3958 -0.9792 -2.7917
H -2.8495 -2.5540 -2.1192
H -1.2960 -2.3587 -2.9444


--link1--
%nproc=128
%mem=1024GB
%oldchk=00000005.chk
%chk=00000005_1.chk
#p m062x/def2tzvp geom=check em=gd3

CCC12CC(C)C3CC1C32CC

0 1


--link1--
%nproc=128
%mem=1024GB
%oldchk=00000005.chk
%chk=00000005_2.chk
#p m062x/def2tzvp scrf=solvent=water geom=check em=gd3

CCC12CC(C)C3CC1C32CC

0 1


