%nproc=128
%mem=1024GB
%chk=00000075.chk
#p opt freq b3lyp/6-31g* em=gd3bj

CCC(C)C1C(C)C2(CC)C3CC132

0 1
C -0.6611 1.8028 -1.8142
C -0.8617 0.2934 -1.8844
C 0.1966 -0.4976 -1.0869
C 0.3982 -1.8666 -1.7506
C -0.2507 -0.7258 0.3665
C 0.8181 -1.1208 1.4788
C 2.3008 -1.1458 1.1396
C 0.2767 0.0268 2.3215
C 1.2218 0.9463 3.0630
C 1.7016 2.1473 2.2601
C -1.1903 0.0899 2.6250
C -1.6971 1.1262 1.7039
C -0.5104 0.4765 1.2010
H -0.7530 2.1884 -0.7974
H -1.4128 2.3079 -2.4294
H 0.3262 2.0817 -2.1966
H -1.8729 0.0428 -1.5422
H -0.8101 0.0166 -2.9449
H 1.1483 0.0449 -1.1178
H 0.7778 -1.7508 -2.7713
H -0.5438 -2.4245 -1.8003
H 1.1122 -2.4832 -1.1987
H -1.1174 -1.4070 0.3812
H 0.5615 -2.0799 1.9548
H 2.5312 -1.9854 0.4775
H 2.9044 -1.2842 2.0424
H 2.6325 -0.2306 0.6440
H 0.7362 1.3205 3.9728
H 2.0877 0.3761 3.4168
H 0.8699 2.8130 2.0084
H 2.1849 1.8499 1.3263
H 2.4235 2.7258 2.8455
H -1.3090 0.4980 3.6221
H -2.6380 0.9358 1.1965
H -1.6108 2.1673 2.0035


--link1--
%nproc=128
%mem=1024GB
%oldchk=00000075.chk
%chk=00000075_1.chk
#p m062x/def2tzvp geom=check em=gd3

CCC(C)C1C(C)C2(CC)C3CC132

0 1


--link1--
%nproc=128
%mem=1024GB
%oldchk=00000075.chk
%chk=00000075_2.chk
#p m062x/def2tzvp scrf=solvent=water geom=check em=gd3

CCC(C)C1C(C)C2(CC)C3CC132

0 1


