%nproc=128
%mem=1024GB
%chk=00000112.chk
#p opt freq b3lyp/6-31g* em=gd3bj

CCC1(CC)C2CC2C1C1CC1

0 1
C -2.1334 -1.5616 -0.6716
C -1.3067 -0.3309 -1.0029
C 0.2173 -0.5060 -0.7842
C 0.8390 -1.6141 -1.6683
C 0.8749 -2.9843 -1.0033
C 0.6475 -0.5027 0.6562
C 2.0249 -0.2551 1.1933
C 1.2729 0.8430 0.5110
C 1.0087 0.8657 -0.9559
C 0.3692 2.0660 -1.6302
C -0.5707 3.0491 -0.9884
C 0.8156 3.4821 -1.3754
H -1.9037 -1.9514 0.3241
H -3.1996 -1.3133 -0.6995
H -1.9706 -2.3565 -1.4048
H -1.5027 -0.0514 -2.0453
H -1.6783 0.4928 -0.3810
H 0.3019 -1.6780 -2.6222
H 1.8758 -1.3646 -1.9252
H 1.2783 -3.7251 -1.7015
H 1.5227 -2.9794 -0.1211
H -0.1107 -3.3284 -0.6867
H -0.1748 -0.6173 1.3510
H 2.8674 -0.6997 0.6762
H 2.1500 -0.1967 2.2682
H 0.8459 1.6618 1.0703
H 1.9767 0.7371 -1.4688
H 0.1746 1.8008 -2.6657
H -1.4013 3.4146 -1.5820
H -0.7982 2.9527 0.0661
H 0.9240 4.1408 -2.2294
H 1.5305 3.6649 -0.5814


--link1--
%nproc=128
%mem=1024GB
%oldchk=00000112.chk
%chk=00000112_1.chk
#p m062x/def2tzvp geom=check em=gd3

CCC1(CC)C2CC2C1C1CC1

0 1


--link1--
%nproc=128
%mem=1024GB
%oldchk=00000112.chk
%chk=00000112_2.chk
#p m062x/def2tzvp scrf=solvent=water geom=check em=gd3

CCC1(CC)C2CC2C1C1CC1

0 1


