%nproc=128
%mem=1024GB
%chk=00000013.chk
#p opt freq b3lyp/6-31g* em=gd3bj

CCC12CC(C(C)C)C1C21CC1

0 1
C 2.1610 2.5068 0.7042
C 1.2738 2.6428 -0.5246
C 0.2964 1.5158 -0.7112
C -0.7084 1.2270 0.3487
C -0.1170 -0.2129 0.4760
C -1.1147 -1.3712 0.3610
C -2.0201 -1.3961 1.5923
C -0.3642 -2.6969 0.2349
C 0.7270 0.0551 -0.7298
C 0.3175 0.7356 -1.9489
C -0.6267 0.4578 -3.0254
C 0.8251 0.8693 -3.3071
H 2.7775 1.6042 0.6531
H 1.5717 2.4607 1.6247
H 2.8328 3.3679 0.7794
H 1.9184 2.7396 -1.4063
H 0.7091 3.5800 -0.4537
H -1.7405 1.2765 -0.0190
H -0.6541 1.8177 1.2681
H 0.5124 -0.3173 1.3733
H -1.7424 -1.2415 -0.5294
H -2.7356 -2.2230 1.5334
H -1.4375 -1.5139 2.5126
H -2.5907 -0.4658 1.6801
H 0.2959 -2.8642 1.0931
H -1.0640 -3.5368 0.1735
H 0.2562 -2.7130 -0.6673
H 1.7665 -0.1960 -0.5721
H -0.9039 -0.5722 -3.2110
H -1.4041 1.1843 -3.2253
H 1.4990 0.1089 -3.6811
H 0.9944 1.8632 -3.7016


--link1--
%nproc=128
%mem=1024GB
%oldchk=00000013.chk
%chk=00000013_1.chk
#p m062x/def2tzvp geom=check em=gd3

CCC12CC(C(C)C)C1C21CC1

0 1


--link1--
%nproc=128
%mem=1024GB
%oldchk=00000013.chk
%chk=00000013_2.chk
#p m062x/def2tzvp scrf=solvent=water geom=check em=gd3

CCC12CC(C(C)C)C1C21CC1

0 1


