%nproc=128
%mem=1024GB
%chk=00000099.chk
#p opt freq b3lyp/6-31g* em=gd3bj

CCC12CC(C(C)C3CC3)C1C2

0 1
C 1.7090 -2.9321 -3.0785
C 2.1881 -1.8191 -2.1608
C 1.0584 -0.9019 -1.7907
C 0.1224 -1.3215 -0.7111
C 0.5198 -0.0425 0.0919
C -0.6385 0.8743 0.5170
C -1.5860 0.1056 1.4502
C -0.2413 2.1752 1.1851
C 0.5746 2.1885 2.4566
C 1.1487 2.7661 1.1948
C 1.3258 0.3918 -1.0934
C 0.8754 0.4012 -2.5237
H 1.2813 -2.5227 -3.9997
H 0.9384 -3.5398 -2.5929
H 2.5418 -3.5886 -3.3489
H 2.6306 -2.2550 -1.2571
H 2.9873 -1.2625 -2.6649
H -0.9180 -1.3671 -1.0531
H 0.3550 -2.2598 -0.1969
H 1.1682 -0.2950 0.9437
H -1.2150 1.1456 -0.3776
H -2.4117 0.7447 1.7818
H -1.0610 -0.2526 2.3427
H -2.0205 -0.7664 0.9518
H -1.0652 2.8846 1.1382
H 0.2767 2.8757 3.2408
H 0.9976 1.2611 2.8245
H 1.2345 3.8456 1.1248
H 1.9838 2.2433 0.7511
H 2.3492 0.6352 -0.8400
H -0.1344 0.7289 -2.7433
H 1.5975 0.6856 -3.2805


--link1--
%nproc=128
%mem=1024GB
%oldchk=00000099.chk
%chk=00000099_1.chk
#p m062x/def2tzvp geom=check em=gd3

CCC12CC(C(C)C3CC3)C1C2

0 1


--link1--
%nproc=128
%mem=1024GB
%oldchk=00000099.chk
%chk=00000099_2.chk
#p m062x/def2tzvp scrf=solvent=water geom=check em=gd3

CCC12CC(C(C)C3CC3)C1C2

0 1


