%nproc=128
%mem=1024GB
%chk=00000001.chk
#p opt freq b3lyp/6-31g* em=gd3bj

CCC1(C(C)C2CCCC2)C2CC21

0 1
C 2.4656 0.7644 -2.2385
C 2.9754 0.2661 -0.8961
C 1.9555 -0.5868 -0.1343
C 0.8000 0.2504 0.4801
C 0.9386 0.3519 2.0069
C -0.6200 -0.1780 0.0400
C -0.8833 -0.0525 -1.4624
C -2.3980 -0.1688 -1.5713
C -2.9476 0.4465 -0.2869
C -1.7415 0.6960 0.6170
C 2.5751 -1.7168 0.6430
C 1.4766 -2.7054 0.6492
C 1.7502 -1.9924 -0.6218
H 1.6515 1.4830 -2.1146
H 2.1026 -0.0609 -2.8587
H 3.2701 1.2706 -2.7818
H 3.2755 1.1180 -0.2740
H 3.8889 -0.3145 -1.0786
H 0.9304 1.2807 0.1204
H 0.6811 -0.5872 2.5051
H 0.2848 1.1313 2.4112
H 1.9649 0.6126 2.2882
H -0.8218 -1.2115 0.3404
H -0.3796 -0.8221 -2.0532
H -0.5680 0.9289 -1.8340
H -2.6902 -1.2241 -1.6293
H -2.7829 0.3303 -2.4658
H -3.4814 1.3817 -0.4864
H -3.6570 -0.2406 0.1875
H -1.9671 0.4492 1.6593
H -1.4673 1.7573 0.5752
H 3.6140 -2.0026 0.5665
H 1.7436 -3.7571 0.7027
H 0.5845 -2.5014 1.2243
H 2.3156 -2.4314 -1.4307


--link1--
%nproc=128
%mem=1024GB
%oldchk=00000001.chk
%chk=00000001_1.chk
#p m062x/def2tzvp geom=check em=gd3

CCC1(C(C)C2CCCC2)C2CC21

0 1


--link1--
%nproc=128
%mem=1024GB
%oldchk=00000001.chk
%chk=00000001_2.chk
#p m062x/def2tzvp scrf=solvent=water geom=check em=gd3

CCC1(C(C)C2CCCC2)C2CC21

0 1


