%nproc=128
%mem=1024GB
%chk=00000102.chk
#p opt freq b3lyp/6-31g* em=gd3bj

CCC12CCCC1C1CC12CC

0 1
C -2.2440 1.8854 -1.0563
C -2.0745 0.3786 -1.1809
C -0.6132 -0.0860 -1.0343
C 0.2945 0.4773 -2.1544
C 1.1215 -0.6863 -2.6909
C 0.2628 -1.9170 -2.4609
C -0.5144 -1.6349 -1.1826
C 0.1904 -1.7112 0.1234
C 1.3485 -0.8896 0.5840
C 0.0060 -0.2358 0.3480
C -0.6897 0.2869 1.5801
C -0.0763 1.6040 2.0359
H -1.9641 2.2481 -0.0662
H -3.2918 2.1565 -1.2219
H -1.6408 2.4250 -1.7921
H -2.7225 -0.1252 -0.4543
H -2.4505 0.0775 -2.1679
H 0.9277 1.2951 -1.7947
H -0.3091 0.8703 -2.9817
H 1.3715 -0.5545 -3.7487
H 2.0714 -0.7723 -2.1576
H -0.4366 -2.0340 -3.2974
H 0.8601 -2.8314 -2.3944
H -1.4665 -2.1812 -1.1569
H -0.2829 -2.4073 0.8040
H 1.6906 -1.0387 1.6040
H 2.1663 -0.6666 -0.0852
H -1.7635 0.4156 1.4270
H -0.5974 -0.4365 2.4006
H -0.0906 2.3522 1.2380
H -0.6257 2.0025 2.8944
H 0.9674 1.4658 2.3375


--link1--
%nproc=128
%mem=1024GB
%oldchk=00000102.chk
%chk=00000102_1.chk
#p m062x/def2tzvp geom=check em=gd3

CCC12CCCC1C1CC12CC

0 1


--link1--
%nproc=128
%mem=1024GB
%oldchk=00000102.chk
%chk=00000102_2.chk
#p m062x/def2tzvp scrf=solvent=water geom=check em=gd3

CCC12CCCC1C1CC12CC

0 1


