%nproc=128
%mem=1024GB
%chk=00000054.chk
#p opt freq b3lyp/6-31g* em=gd3bj

CC(C)C1C2CC21C(C)CC1CC1

0 1
C -1.2337 0.7177 -2.6542
C -1.6949 0.6092 -1.2036
C -1.7878 -0.8403 -0.7466
C -0.9799 1.5068 -0.2210
C 0.1806 2.3640 -0.6571
C 0.6151 2.8034 0.6981
C 0.3644 1.3471 0.4556
C 1.4443 0.3132 0.5309
C 1.0157 -0.7937 1.5031
C 1.9701 -0.2869 -0.7808
C 2.9435 0.6117 -1.5055
C 2.8509 0.7941 -3.0013
C 3.9764 -0.0052 -2.4184
H -0.2134 0.3597 -2.7939
H -1.2747 1.7558 -3.0015
H -1.8823 0.1262 -3.3098
H -2.7321 0.9763 -1.2141
H -2.5331 -1.3817 -1.3399
H -0.8398 -1.3679 -0.8674
H -2.0882 -0.9041 0.3044
H -1.7428 1.9780 0.4021
H 0.8173 2.2171 -1.5074
H -0.0778 3.3593 1.3216
H 1.6378 3.1492 0.8067
H 2.3004 0.7936 1.0263
H 1.8547 -1.4621 1.7251
H 0.6721 -0.3665 2.4519
H 0.2032 -1.4028 1.1029
H 1.1508 -0.5755 -1.4393
H 2.5086 -1.2147 -0.5463
H 3.2719 1.4591 -0.9134
H 2.0887 0.2570 -3.5534
H 3.0780 1.7744 -3.4053
H 3.9658 -1.0785 -2.5714
H 4.9688 0.4315 -2.4286


--link1--
%nproc=128
%mem=1024GB
%oldchk=00000054.chk
%chk=00000054_1.chk
#p m062x/def2tzvp geom=check em=gd3

CC(C)C1C2CC21C(C)CC1CC1

0 1


--link1--
%nproc=128
%mem=1024GB
%oldchk=00000054.chk
%chk=00000054_2.chk
#p m062x/def2tzvp scrf=solvent=water geom=check em=gd3

CC(C)C1C2CC21C(C)CC1CC1

0 1


