%nproc=128
%mem=1024GB
%chk=00000003.chk
#p opt freq b3lyp/6-31g* em=gd3bj

CCC1(C(C)C2CCC2)C2CCC21

0 1
C -1.3690 -1.8698 0.5334
C 0.0824 -1.4257 0.4449
C 0.4226 -0.1685 1.2504
C 0.9513 1.0016 0.3773
C 1.8282 2.0127 1.1388
C -0.1288 1.8013 -0.3816
C -1.4828 2.2049 0.2701
C -2.0839 2.1824 -1.1518
C -0.9766 1.1723 -1.5247
C 1.0808 -0.4450 2.5922
C 0.6401 -1.4742 3.5655
C -0.7140 -0.7520 3.6548
C -0.2838 0.1535 2.5600
H -1.5894 -2.5891 -0.2622
H -1.5714 -2.3745 1.4809
H -2.0636 -1.0308 0.4398
H 0.3272 -1.2643 -0.6112
H 0.7303 -2.2550 0.7551
H 1.6182 0.5597 -0.3761
H 2.1926 2.7992 0.4679
H 1.2762 2.5059 1.9449
H 2.7150 1.5326 1.5633
H 0.3677 2.6969 -0.7970
H -1.9387 1.4583 0.9265
H -1.4948 3.1748 0.7739
H -2.0063 3.1395 -1.6802
H -3.1097 1.8139 -1.2290
H -0.5623 1.2814 -2.5309
H -1.2844 0.1348 -1.3890
H 1.8893 0.1496 2.9895
H 1.2003 -1.4991 4.5059
H 0.5867 -2.4937 3.1705
H -1.5879 -1.3761 3.4530
H -0.8811 -0.2430 4.6116
H -0.4068 1.1873 2.8577


--link1--
%nproc=128
%mem=1024GB
%oldchk=00000003.chk
%chk=00000003_1.chk
#p m062x/def2tzvp geom=check em=gd3

CCC1(C(C)C2CCC2)C2CCC21

0 1


--link1--
%nproc=128
%mem=1024GB
%oldchk=00000003.chk
%chk=00000003_2.chk
#p m062x/def2tzvp scrf=solvent=water geom=check em=gd3

CCC1(C(C)C2CCC2)C2CCC21

0 1


