%nproc=128
%mem=1024GB
%chk=00000008.chk
#p opt freq b3lyp/6-31g* em=gd3bj

CCCCCC(C)C1C2CC3C2C31

0 1
C -2.9145 0.5033 1.7664
C -2.0051 1.3027 0.8468
C -0.7569 0.5062 0.4631
C 0.1492 1.3112 -0.4680
C 1.4952 0.6405 -0.7807
C 1.3779 -0.6844 -1.5737
C 2.3857 -0.6980 -2.7204
C 1.5300 -1.8832 -0.6252
C 1.5977 -3.4137 -1.1221
C 2.9311 -3.8583 -1.8778
C 3.6229 -3.2963 -0.6911
C 2.4035 -3.6018 0.0805
C 2.8620 -2.1934 -0.0109
H -3.2506 -0.4187 1.2813
H -3.7996 1.0911 2.0288
H -2.3974 0.2353 2.6933
H -2.5610 1.5814 -0.0559
H -1.7144 2.2326 1.3493
H -0.2046 0.2320 1.3698
H -1.0671 -0.4221 -0.0290
H 0.3587 2.2849 -0.0069
H -0.3795 1.5193 -1.4065
H 2.0754 1.3694 -1.3611
H 2.0480 0.4934 0.1547
H 0.3822 -0.7370 -2.0324
H 3.4179 -0.7542 -2.3616
H 2.2911 0.2065 -3.3320
H 2.1995 -1.5420 -3.3893
H 0.7594 -1.7873 0.1576
H 0.6737 -3.9596 -1.2979
H 3.1333 -3.3812 -2.8369
H 3.0346 -4.9427 -2.0078
H 4.5588 -3.7237 -0.3810
H 2.2352 -4.2236 0.9265
H 3.1382 -1.6871 0.8971


--link1--
%nproc=128
%mem=1024GB
%oldchk=00000008.chk
%chk=00000008_1.chk
#p m062x/def2tzvp geom=check em=gd3

CCCCCC(C)C1C2CC3C2C31

0 1


--link1--
%nproc=128
%mem=1024GB
%oldchk=00000008.chk
%chk=00000008_2.chk
#p m062x/def2tzvp scrf=solvent=water geom=check em=gd3

CCCCCC(C)C1C2CC3C2C31

0 1


