%nproc=128
%mem=1024GB
%chk=00000120.chk
#p opt freq b3lyp/6-31g* em=gd3bj

CCC12CC(C)C3C1CC32CC

0 1
C -1.9910 -1.2726 2.4060
C -1.9113 -0.6653 1.0144
C -0.5597 -0.0219 0.7622
C 0.6017 -1.0077 0.5651
C 1.7723 -0.0410 0.4259
C 2.5982 -0.2398 -0.8305
C 1.0149 1.2743 0.4147
C -0.0156 1.2032 1.6073
C -0.9114 2.1387 0.7614
C -0.3927 1.1362 -0.3281
C -0.6487 1.1628 -1.7928
C -2.1360 1.1034 -2.0928
H -1.8108 -0.5171 3.1774
H -2.9845 -1.6998 2.5749
H -1.2563 -2.0721 2.5388
H -2.7232 0.0620 0.9114
H -2.1023 -1.4435 0.2662
H 0.7437 -1.6630 1.4300
H 0.4530 -1.6297 -0.3241
H 2.4280 -0.0990 1.3028
H 3.3660 0.5371 -0.9109
H 1.9918 -0.1925 -1.7388
H 3.0989 -1.2132 -0.8111
H 1.5809 2.2019 0.2934
H 0.2144 1.2353 2.6616
H -1.9816 2.1343 0.9830
H -0.5778 3.1776 0.6653
H -0.2351 2.0785 -2.2296
H -0.1563 0.3214 -2.2897
H -2.5766 0.1711 -1.7271
H -2.6693 1.9360 -1.6230
H -2.3074 1.1561 -3.1726


--link1--
%nproc=128
%mem=1024GB
%oldchk=00000120.chk
%chk=00000120_1.chk
#p m062x/def2tzvp geom=check em=gd3

CCC12CC(C)C3C1CC32CC

0 1


--link1--
%nproc=128
%mem=1024GB
%oldchk=00000120.chk
%chk=00000120_2.chk
#p m062x/def2tzvp scrf=solvent=water geom=check em=gd3

CCC12CC(C)C3C1CC32CC

0 1


