%nproc=128
%mem=1024GB
%chk=00000029.chk
#p opt freq b3lyp/6-31g* em=gd3bj

CC(CC12CC(C)C1C2)C1CC1

0 1
C -2.4728 -0.2589 -1.3845
C -1.5927 -1.0877 -0.4442
C -0.1000 -0.7466 -0.6185
C 0.2222 0.6566 -0.1792
C 0.2816 0.9495 1.2834
C 1.7638 1.3718 1.1017
C 2.1263 2.7646 1.5840
C 1.6011 1.2089 -0.3705
C 0.4729 1.7312 -1.2065
C -1.8163 -2.5602 -0.7030
C -2.9816 -3.2745 -0.0667
C -1.5812 -3.5667 0.3945
H -2.3911 0.8106 -1.1680
H -2.1953 -0.4193 -2.4321
H -3.5265 -0.5387 -1.2768
H -1.8927 -0.8531 0.5857
H 0.1939 -0.9001 -1.6653
H 0.5069 -1.4494 -0.0324
H 0.1407 0.0979 1.9573
H -0.4001 1.7495 1.5944
H 2.4609 0.6295 1.5153
H 2.0802 2.8156 2.6766
H 3.1450 3.0252 1.2789
H 1.4477 3.5243 1.1822
H 2.3649 0.5817 -0.8108
H 0.4561 1.4679 -2.2580
H 0.1005 2.7291 -1.0040
H -1.5447 -2.8502 -1.7133
H -3.4924 -4.0308 -0.6521
H -3.6306 -2.7208 0.6022
H -1.1451 -4.5211 0.1216
H -1.2861 -3.2102 1.3749


--link1--
%nproc=128
%mem=1024GB
%oldchk=00000029.chk
%chk=00000029_1.chk
#p m062x/def2tzvp geom=check em=gd3

CC(CC12CC(C)C1C2)C1CC1

0 1


--link1--
%nproc=128
%mem=1024GB
%oldchk=00000029.chk
%chk=00000029_2.chk
#p m062x/def2tzvp scrf=solvent=water geom=check em=gd3

CC(CC12CC(C)C1C2)C1CC1

0 1


