%nproc=128
%mem=1024GB
%chk=00000009.chk
#p opt freq b3lyp/6-31g* em=gd3bj

CC1CC(C(C)CCC2C3CC23)C1

0 1
C 1.6017 -3.1498 -3.2105
C 1.6315 -2.1915 -2.0297
C 0.3826 -1.2926 -1.8488
C -0.1556 -2.3284 -0.8238
C -1.0253 -1.9348 0.3796
C -2.2353 -1.1323 -0.0936
C -0.2848 -1.3086 1.5757
C 0.3994 0.0527 1.4265
C -0.5454 1.2169 1.3575
C 0.0277 2.5968 1.3521
C -1.1369 3.2944 0.7432
C -0.6604 2.0343 0.1126
C 1.3121 -2.8069 -0.6441
H 2.4456 -3.8454 -3.1594
H 0.6799 -3.7393 -3.2395
H 1.6789 -2.5976 -4.1527
H 2.5694 -1.6220 -2.0383
H 0.6173 -0.3050 -1.4466
H -0.2399 -1.1543 -2.7383
H -0.7312 -3.0993 -1.3667
H -1.4305 -2.8770 0.7784
H -2.8437 -1.7320 -0.7802
H -2.8721 -0.8434 0.7485
H -1.9447 -0.2311 -0.6379
H 0.4776 -2.0234 1.9113
H -0.9964 -1.2420 2.4106
H 1.0147 0.1983 2.3248
H 1.1039 0.0535 0.5914
H -1.4268 1.0579 1.9713
H 1.0620 2.8469 1.1761
H -0.9550 4.2265 0.2190
H -2.0857 3.2903 1.2704
H -0.0032 1.9813 -0.7404
H 1.4424 -3.8893 -0.5540
H 1.8724 -2.3243 0.1631


--link1--
%nproc=128
%mem=1024GB
%oldchk=00000009.chk
%chk=00000009_1.chk
#p m062x/def2tzvp geom=check em=gd3

CC1CC(C(C)CCC2C3CC23)C1

0 1


--link1--
%nproc=128
%mem=1024GB
%oldchk=00000009.chk
%chk=00000009_2.chk
#p m062x/def2tzvp scrf=solvent=water geom=check em=gd3

CC1CC(C(C)CCC2C3CC23)C1

0 1


