%nproc=128
%mem=1024GB
%chk=00000113.chk
#p opt freq b3lyp/6-31g* em=gd3bj

CC(CC1(C)CC2CC21)C1CC1

0 1
C -0.7296 0.7046 1.7105
C -0.8215 -0.6768 1.0524
C -0.2130 -0.7168 -0.3656
C -0.8500 0.2465 -1.3965
C -2.3756 0.1295 -1.4707
C -0.1925 0.0583 -2.8075
C 0.3039 1.4503 -2.7451
C -0.5339 2.6616 -2.4915
C -0.3228 1.6506 -1.4051
C -0.2408 -1.7057 2.0093
C 1.2419 -1.7831 2.2825
C 0.5489 -2.9234 1.5891
H 0.3084 1.0498 1.7645
H -1.3172 1.4504 1.1686
H -1.1174 0.6739 2.7352
H -1.8866 -0.9263 0.9687
H -0.3351 -1.7350 -0.7574
H 0.8688 -0.5388 -0.3144
H -2.7868 0.6963 -2.3135
H -2.6807 -0.9147 -1.5993
H -2.8513 0.5168 -0.5643
H 0.5992 -0.6977 -2.8643
H -0.8887 -0.1273 -3.6335
H 1.3803 1.5245 -2.8218
H -1.5073 2.7214 -2.9637
H -0.0332 3.6187 -2.4007
H 0.3373 1.8805 -0.5791
H -0.8959 -1.8324 2.8690
H 1.9209 -1.1717 1.7002
H 1.5590 -1.9302 3.3092
H 0.3968 -3.8391 2.1513
H 0.7927 -3.0968 0.5492


--link1--
%nproc=128
%mem=1024GB
%oldchk=00000113.chk
%chk=00000113_1.chk
#p m062x/def2tzvp geom=check em=gd3

CC(CC1(C)CC2CC21)C1CC1

0 1


--link1--
%nproc=128
%mem=1024GB
%oldchk=00000113.chk
%chk=00000113_2.chk
#p m062x/def2tzvp scrf=solvent=water geom=check em=gd3

CC(CC1(C)CC2CC21)C1CC1

0 1


