%nproc=128
%mem=1024GB
%chk=00000015.chk
#p opt freq b3lyp/6-31g* em=gd3bj

CC(C)C1CC2CC21CC1CCC1

0 1
C 1.0994 -0.7934 -4.2037
C 0.6728 0.5932 -3.7176
C 1.8860 1.4757 -3.4447
C -0.3404 0.4751 -2.5704
C -0.9659 1.7809 -2.0000
C -0.9093 1.1899 -0.6420
C -1.2734 -0.2059 -0.2613
C -0.0524 0.0563 -1.1352
C 1.3751 -0.0410 -0.6476
C 1.7089 -0.7252 0.6768
C 1.2341 -0.1817 2.0470
C 1.2029 -1.6432 2.5432
C 1.1133 -2.0991 1.0711
H 1.7536 -0.7132 -5.0784
H 0.2271 -1.3893 -4.4936
H 1.6359 -1.3536 -3.4335
H 0.1376 1.0622 -4.5554
H 1.6092 2.4382 -3.0080
H 2.6139 0.9992 -2.7848
H 2.4118 1.6849 -4.3837
H -1.1452 -0.1826 -2.9477
H -1.9731 1.9950 -2.3719
H -0.3669 2.6907 -2.1025
H -0.5164 1.8735 0.0981
H -2.1466 -0.6516 -0.7293
H -1.1978 -0.4731 0.7806
H 1.9327 -0.5967 -1.4070
H 1.8070 0.9673 -0.6216
H 2.8119 -0.7929 0.6937
H 0.2624 0.3157 2.0628
H 1.9508 0.4660 2.5612
H 0.3509 -1.9103 3.1734
H 2.1276 -1.9554 3.0419
H 0.0938 -2.2975 0.7317
H 1.7313 -2.9645 0.8140


--link1--
%nproc=128
%mem=1024GB
%oldchk=00000015.chk
%chk=00000015_1.chk
#p m062x/def2tzvp geom=check em=gd3

CC(C)C1CC2CC21CC1CCC1

0 1


--link1--
%nproc=128
%mem=1024GB
%oldchk=00000015.chk
%chk=00000015_2.chk
#p m062x/def2tzvp scrf=solvent=water geom=check em=gd3

CC(C)C1CC2CC21CC1CCC1

0 1


