%nproc=128
%mem=1024GB
%chk=00000046.chk
#p opt freq b3lyp/6-31g* em=gd3bj

CCC(C)C1C2(CC)CC3CC312

0 1
C 2.7164 1.0441 0.3953
C 2.1191 -0.2056 1.0299
C 1.4421 -1.1454 0.0138
C 1.0972 -2.4896 0.6607
C 0.3053 -0.4797 -0.7296
C -1.0886 -0.1348 -0.2377
C -1.4916 -0.2775 1.2092
C -2.5856 -1.3058 1.4560
C -2.0839 0.5209 -1.1596
C -2.1729 -0.8279 -1.7820
C -1.1475 -1.4753 -2.6312
C -0.8899 -1.3023 -1.1584
H 3.4154 0.7834 -0.4056
H 1.9394 1.6939 -0.0184
H 3.2641 1.6212 1.1474
H 2.9286 -0.7476 1.5348
H 1.4170 0.1021 1.8104
H 2.1962 -1.3792 -0.7517
H 0.3747 -2.3934 1.4738
H 0.6846 -3.1889 -0.0742
H 1.9975 -2.9542 1.0784
H 0.7176 0.2105 -1.4642
H -1.8417 0.6997 1.5647
H -0.6389 -0.5228 1.8428
H -2.2753 -2.3033 1.1295
H -2.8192 -1.3577 2.5243
H -3.5064 -1.0450 0.9255
H -1.6706 1.3085 -1.7983
H -3.0082 0.8847 -0.7018
H -3.0865 -1.3530 -1.5354
H -1.3357 -2.4811 -2.9878
H -0.6074 -0.8559 -3.3375


--link1--
%nproc=128
%mem=1024GB
%oldchk=00000046.chk
%chk=00000046_1.chk
#p m062x/def2tzvp geom=check em=gd3

CCC(C)C1C2(CC)CC3CC312

0 1


--link1--
%nproc=128
%mem=1024GB
%oldchk=00000046.chk
%chk=00000046_2.chk
#p m062x/def2tzvp scrf=solvent=water geom=check em=gd3

CCC(C)C1C2(CC)CC3CC312

0 1


