%nproc=128
%mem=1024GB
%chk=00000050.chk
#p opt freq b3lyp/6-31g* em=gd3bj

CC1CC1CC(C)C1CC1C1CC1

0 1
C 2.8372 -2.2429 0.6469
C 1.8366 -1.6741 -0.3001
C 1.4721 -0.2156 -0.2305
C 0.4695 -1.2600 0.1943
C -0.7364 -1.5746 -0.6490
C -2.0104 -0.7859 -0.2869
C -2.4248 -0.9661 1.1752
C -1.8865 0.6814 -0.6266
C -3.1278 1.4964 -0.8714
C -2.2076 1.1722 -2.0249
C -1.4532 2.2751 -2.7589
C -0.1288 2.0134 -3.4338
C -0.1954 2.9373 -2.2549
H 3.8501 -2.0834 0.2645
H 2.7721 -1.7857 1.6397
H 2.6798 -3.3203 0.7572
H 1.9162 -2.1251 -1.2832
H 1.3179 0.3056 -1.1674
H 1.9180 0.3985 0.5437
H 0.2805 -1.3880 1.2541
H -0.5047 -1.4122 -1.7097
H -0.9471 -2.6460 -0.5393
H -2.8183 -1.2135 -0.8973
H -1.7364 -0.4600 1.8599
H -3.4182 -0.5370 1.3475
H -2.4673 -2.0265 1.4437
H -1.0936 1.1669 -0.0702
H -4.0935 1.0052 -0.8448
H -3.1418 2.5143 -0.4979
H -2.5918 0.4126 -2.7091
H -2.1216 2.9347 -3.3164
H 0.0343 2.4469 -4.4136
H 0.3302 1.0415 -3.2966
H 0.2407 2.6018 -1.3230
H -0.0799 4.0004 -2.4336


--link1--
%nproc=128
%mem=1024GB
%oldchk=00000050.chk
%chk=00000050_1.chk
#p m062x/def2tzvp geom=check em=gd3

CC1CC1CC(C)C1CC1C1CC1

0 1


--link1--
%nproc=128
%mem=1024GB
%oldchk=00000050.chk
%chk=00000050_2.chk
#p m062x/def2tzvp scrf=solvent=water geom=check em=gd3

CC1CC1CC(C)C1CC1C1CC1

0 1


