%nproc=128
%mem=1024GB
%chk=00000107.chk
#p opt freq b3lyp/6-31g* em=gd3bj

CC(CCC1CC1)C1C(C)C2CC21

0 1
C -0.3971 -0.3477 -1.6714
C 0.7398 0.6300 -1.3793
C 2.0126 -0.0712 -0.8522
C 1.8650 -0.9272 0.4138
C 1.6126 -2.3781 0.1122
C 2.0726 -3.4352 1.0830
C 2.7545 -3.2923 -0.2493
C 0.2521 1.7211 -0.4102
C -0.8429 2.6994 -0.9564
C -2.1927 2.6483 -0.2614
C 0.0335 3.8478 -0.5933
C 0.7835 4.0543 0.6862
C 1.1338 2.9117 -0.2137
H -0.8217 -0.7623 -0.7516
H -1.2139 0.1535 -2.2016
H -0.0529 -1.1713 -2.3051
H 1.0139 1.1055 -2.3312
H 2.4338 -0.6823 -1.6610
H 2.7630 0.7010 -0.6417
H 1.0718 -0.5522 1.0671
H 2.7972 -0.8414 0.9875
H 0.6583 -2.5478 -0.3705
H 2.6195 -3.1300 1.9679
H 1.4321 -4.2966 1.2356
H 3.7606 -2.8887 -0.2634
H 2.5741 -4.0557 -0.9977
H -0.0271 1.2924 0.5630
H -0.9776 2.6388 -2.0459
H -2.7027 1.7053 -0.4828
H -2.8346 3.4655 -0.6060
H -2.0936 2.7311 0.8260
H 0.1922 4.5234 -1.4242
H 1.4730 4.8885 0.7445
H 0.2773 3.8371 1.6197
H 2.0265 2.9268 -0.8242


--link1--
%nproc=128
%mem=1024GB
%oldchk=00000107.chk
%chk=00000107_1.chk
#p m062x/def2tzvp geom=check em=gd3

CC(CCC1CC1)C1C(C)C2CC21

0 1


--link1--
%nproc=128
%mem=1024GB
%oldchk=00000107.chk
%chk=00000107_2.chk
#p m062x/def2tzvp scrf=solvent=water geom=check em=gd3

CC(CCC1CC1)C1C(C)C2CC21

0 1


