%nproc=128
%mem=1024GB
%chk=00000037.chk
#p opt freq b3lyp/6-31g* em=gd3bj

CCC(C)C1C2CC2C2CC21CC

0 1
C 1.3469 2.0473 -0.7212
C 1.2546 0.5279 -0.7465
C 1.0285 -0.1448 0.6219
C 2.2262 0.1241 1.5477
C -0.3043 0.2462 1.3132
C -0.4986 -0.5062 2.6398
C -0.4464 -2.0083 2.7687
C -1.7727 -1.3275 2.5816
C -2.4346 -1.0662 1.2271
C -1.8509 -1.4096 -0.1094
C -1.5877 -0.0307 0.4690
C -2.3401 1.1879 -0.0436
C -2.3204 1.3422 -1.5557
H 2.2027 2.3869 -0.1305
H 0.4430 2.5051 -0.3126
H 1.4795 2.4275 -1.7395
H 2.1849 0.1387 -1.1805
H 0.4635 0.2212 -1.4375
H 1.0234 -1.2246 0.4278
H 3.1713 -0.0801 1.0332
H 2.1962 -0.5208 2.4318
H 2.2431 1.1626 1.8939
H -0.2740 1.3124 1.5684
H -0.3109 0.1008 3.5153
H -0.0536 -2.6044 1.9555
H -0.2262 -2.4214 3.7471
H -2.4264 -1.2897 3.4485
H -3.5142 -0.9429 1.2511
H -1.0450 -2.1316 -0.1513
H -2.5425 -1.5145 -0.9379
H -1.9344 2.1011 0.4059
H -3.3871 1.1433 0.2808
H -1.3047 1.4544 -1.9390
H -2.8842 2.2347 -1.8468
H -2.7785 0.4842 -2.0558


--link1--
%nproc=128
%mem=1024GB
%oldchk=00000037.chk
%chk=00000037_1.chk
#p m062x/def2tzvp geom=check em=gd3

CCC(C)C1C2CC2C2CC21CC

0 1


--link1--
%nproc=128
%mem=1024GB
%oldchk=00000037.chk
%chk=00000037_2.chk
#p m062x/def2tzvp scrf=solvent=water geom=check em=gd3

CCC(C)C1C2CC2C2CC21CC

0 1


