%nproc=128
%mem=1024GB
%chk=00000042.chk
#p opt freq b3lyp/6-31g* em=gd3bj

CCC1(CC(C)C2CC2)C2C(C)C21

0 1
C -2.7646 0.3752 0.5994
C -1.4875 0.8402 1.2828
C -0.3181 1.0242 0.3157
C 0.1297 -0.2524 -0.4085
C 0.5750 -1.4070 0.5141
C 1.7483 -1.0007 1.4146
C 0.9350 -2.6941 -0.2081
C 0.5056 -3.0339 -1.6158
C 1.9488 -2.7239 -1.3260
C -0.3075 2.3208 -0.4384
C 1.1530 2.5239 -0.6279
C 1.6882 3.9078 -0.7823
C 0.6906 2.0633 0.7061
H -3.5910 0.3575 1.3171
H -3.0398 1.0439 -0.2224
H -2.6574 -0.6350 0.1935
H -1.7030 1.7902 1.7896
H -1.2134 0.1375 2.0768
H -0.7145 -0.5848 -1.0235
H 0.9306 -0.0452 -1.1235
H -0.2661 -1.6651 1.1688
H 2.0907 -1.8501 2.0164
H 2.6006 -0.6525 0.8212
H 1.4643 -0.2058 2.1101
H 0.9705 -3.5231 0.4960
H -0.0483 -2.3219 -2.2136
H 0.2427 -4.0656 -1.8257
H 2.6577 -3.5447 -1.3425
H 2.3544 -1.7916 -1.7000
H -0.9992 3.1284 -0.2468
H 1.7103 1.8449 -1.2593
H 1.1523 4.6299 -0.1572
H 2.7462 3.9356 -0.5032
H 1.6021 4.2306 -1.8246
H 0.5714 2.7226 1.5536


--link1--
%nproc=128
%mem=1024GB
%oldchk=00000042.chk
%chk=00000042_1.chk
#p m062x/def2tzvp geom=check em=gd3

CCC1(CC(C)C2CC2)C2C(C)C21

0 1


--link1--
%nproc=128
%mem=1024GB
%oldchk=00000042.chk
%chk=00000042_2.chk
#p m062x/def2tzvp scrf=solvent=water geom=check em=gd3

CCC1(CC(C)C2CC2)C2C(C)C21

0 1


