%nproc=128
%mem=1024GB
%chk=00000040.chk
#p opt freq b3lyp/6-31g* em=gd3bj

CCCC(C1CC1C)C1C2CC1C2

0 1
C -3.6557 -0.4692 1.4023
C -2.1502 -0.2958 1.2583
C -1.7412 -0.2129 -0.2162
C -0.2303 -0.0514 -0.4860
C 0.5718 -1.2211 0.0384
C 1.8583 -1.6163 -0.6478
C 0.6777 -2.5506 -0.6830
C -0.0023 -2.8403 -1.9773
C 0.2931 1.2581 0.1256
C 1.6113 1.9431 -0.4199
C 1.0952 3.2207 0.3445
C -0.2017 2.6787 -0.3678
C 0.7414 2.4906 -1.6042
H -3.9933 -1.3890 0.9142
H -3.9308 -0.5255 2.4602
H -4.1921 0.3744 0.9563
H -1.8532 0.6137 1.7905
H -1.6537 -1.1408 1.7465
H -2.0956 -1.1177 -0.7253
H -2.2720 0.6286 -0.6799
H -0.1197 -0.0219 -1.5739
H 0.5764 -1.2574 1.1243
H 2.7016 -1.8883 -0.0223
H 2.1408 -1.1020 -1.5597
H 0.7221 -3.4398 -0.0617
H 0.4787 -3.6938 -2.4658
H -1.0508 -3.1005 -1.8034
H 0.0333 -1.9977 -2.6739
H 0.2876 1.1528 1.2225
H 2.6177 1.5554 -0.4399
H 1.4791 4.1907 0.0104
H 1.1148 3.1920 1.4391
H -1.1937 3.1005 -0.3288
H 0.4301 1.7921 -2.3834
H 1.0976 3.4037 -2.0953


--link1--
%nproc=128
%mem=1024GB
%oldchk=00000040.chk
%chk=00000040_1.chk
#p m062x/def2tzvp geom=check em=gd3

CCCC(C1CC1C)C1C2CC1C2

0 1


--link1--
%nproc=128
%mem=1024GB
%oldchk=00000040.chk
%chk=00000040_2.chk
#p m062x/def2tzvp scrf=solvent=water geom=check em=gd3

CCCC(C1CC1C)C1C2CC1C2

0 1


